Program Version,EnergyPlus, Version 8.7.0-78a111df4a, YMD=2017.10.26 14:25,IDD_Version 8.7.0
   ** Warning ** Timestep: Requested number (1) is less than the suggested minimum of 4.
   **   ~~~   ** Please see entry for Timestep in Input/Output Reference for discussion of considerations.
   ** Warning ** Site:GroundTemperature:BuildingSurface: Some values fall outside the range of 15-25C.
   **   ~~~   ** These values may be inappropriate.  Please consult the Input Output Reference for more details.
   ** Warning ** ProcessScheduleInput: Schedule:Day:Interval="RES INFIL_U 1 BATH EXHAUST SCHEDULE ALLDAY1", Blank Schedule Type Limits Name input -- will not be validated.
   ** Warning ** ProcessScheduleInput: Schedule:Day:Interval="RES INFIL_U 1 BATH EXHAUST SCHEDULE ALLDAY10", Blank Schedule Type Limits Name input -- will not be validated.
   ** Warning ** ProcessScheduleInput: Schedule:Day:Interval="RES INFIL_U 1 BATH EXHAUST SCHEDULE ALLDAY11", Blank Schedule Type Limits Name input -- will not be validated.
   ** Warning ** ProcessScheduleInput: Schedule:Day:Interval="RES INFIL_U 1 BATH EXHAUST SCHEDULE ALLDAY12", Blank Schedule Type Limits Name input -- will not be validated.
   ** Warning ** ProcessScheduleInput: Schedule:Day:Interval="RES INFIL_U 1 BATH EXHAUST SCHEDULE ALLDAY2", Blank Schedule Type Limits Name input -- will not be validated.
   ** Warning ** ProcessScheduleInput: Schedule:Day:Interval="RES INFIL_U 1 BATH EXHAUST SCHEDULE ALLDAY3", Blank Schedule Type Limits Name input -- will not be validated.
   ** Warning ** ProcessScheduleInput: Schedule:Day:Interval="RES INFIL_U 1 BATH EXHAUST SCHEDULE ALLDAY4", Blank Schedule Type Limits Name input -- will not be validated.
   ** Warning ** ProcessScheduleInput: Schedule:Day:Interval="RES INFIL_U 1 BATH EXHAUST SCHEDULE ALLDAY5", Blank Schedule Type Limits Name input -- will not be validated.
   ** Warning ** ProcessScheduleInput: Schedule:Day:Interval="RES INFIL_U 1 BATH EXHAUST SCHEDULE ALLDAY6", Blank Schedule Type Limits Name input -- will not be validated.
   ** Warning ** ProcessScheduleInput: Schedule:Day:Interval="RES INFIL_U 1 BATH EXHAUST SCHEDULE ALLDAY7", Blank Schedule Type Limits Name input -- will not be validated.
   ** Warning ** ProcessScheduleInput: Schedule:Day:Interval="RES INFIL_U 1 BATH EXHAUST SCHEDULE ALLDAY8", Blank Schedule Type Limits Name input -- will not be validated.
   ** Warning ** ProcessScheduleInput: Schedule:Day:Interval="RES INFIL_U 1 BATH EXHAUST SCHEDULE ALLDAY9", Blank Schedule Type Limits Name input -- will not be validated.
   ** Warning ** ProcessScheduleInput: Schedule:Day:Interval="RES INFIL_U 1 CLOTHES DRYER EXHAUST SCHEDULE ALLDAY1", Blank Schedule Type Limits Name input -- will not be validated.
   ** Warning ** ProcessScheduleInput: Schedule:Day:Interval="RES INFIL_U 1 CLOTHES DRYER EXHAUST SCHEDULE ALLDAY10", Blank Schedule Type Limits Name input -- will not be validated.
   ** Warning ** ProcessScheduleInput: Schedule:Day:Interval="RES INFIL_U 1 CLOTHES DRYER EXHAUST SCHEDULE ALLDAY11", Blank Schedule Type Limits Name input -- will not be validated.
   ** Warning ** ProcessScheduleInput: Schedule:Day:Interval="RES INFIL_U 1 CLOTHES DRYER EXHAUST SCHEDULE ALLDAY12", Blank Schedule Type Limits Name input -- will not be validated.
   ** Warning ** ProcessScheduleInput: Schedule:Day:Interval="RES INFIL_U 1 CLOTHES DRYER EXHAUST SCHEDULE ALLDAY2", Blank Schedule Type Limits Name input -- will not be validated.
   ** Warning ** ProcessScheduleInput: Schedule:Day:Interval="RES INFIL_U 1 CLOTHES DRYER EXHAUST SCHEDULE ALLDAY3", Blank Schedule Type Limits Name input -- will not be validated.
   ** Warning ** ProcessScheduleInput: Schedule:Day:Interval="RES INFIL_U 1 CLOTHES DRYER EXHAUST SCHEDULE ALLDAY4", Blank Schedule Type Limits Name input -- will not be validated.
   ** Warning ** ProcessScheduleInput: Schedule:Day:Interval="RES INFIL_U 1 CLOTHES DRYER EXHAUST SCHEDULE ALLDAY5", Blank Schedule Type Limits Name input -- will not be validated.
   ** Warning ** ProcessScheduleInput: Schedule:Day:Interval="RES INFIL_U 1 CLOTHES DRYER EXHAUST SCHEDULE ALLDAY6", Blank Schedule Type Limits Name input -- will not be validated.
   ** Warning ** ProcessScheduleInput: Schedule:Day:Interval="RES INFIL_U 1 CLOTHES DRYER EXHAUST SCHEDULE ALLDAY7", Blank Schedule Type Limits Name input -- will not be validated.
   ** Warning ** ProcessScheduleInput: Schedule:Day:Interval="RES INFIL_U 1 CLOTHES DRYER EXHAUST SCHEDULE ALLDAY8", Blank Schedule Type Limits Name input -- will not be validated.
   ** Warning ** ProcessScheduleInput: Schedule:Day:Interval="RES INFIL_U 1 CLOTHES DRYER EXHAUST SCHEDULE ALLDAY9", Blank Schedule Type Limits Name input -- will not be validated.
   ** Warning ** ProcessScheduleInput: Schedule:Day:Interval="RES INFIL_U 1 RANGE HOOD SCHEDULE ALLDAY1", Blank Schedule Type Limits Name input -- will not be validated.
   ** Warning ** ProcessScheduleInput: Schedule:Day:Interval="RES INFIL_U 1 RANGE HOOD SCHEDULE ALLDAY10", Blank Schedule Type Limits Name input -- will not be validated.
   ** Warning ** ProcessScheduleInput: Schedule:Day:Interval="RES INFIL_U 1 RANGE HOOD SCHEDULE ALLDAY11", Blank Schedule Type Limits Name input -- will not be validated.
   ** Warning ** ProcessScheduleInput: Schedule:Day:Interval="RES INFIL_U 1 RANGE HOOD SCHEDULE ALLDAY12", Blank Schedule Type Limits Name input -- will not be validated.
   ** Warning ** ProcessScheduleInput: Schedule:Day:Interval="RES INFIL_U 1 RANGE HOOD SCHEDULE ALLDAY2", Blank Schedule Type Limits Name input -- will not be validated.
   ** Warning ** ProcessScheduleInput: Schedule:Day:Interval="RES INFIL_U 1 RANGE HOOD SCHEDULE ALLDAY3", Blank Schedule Type Limits Name input -- will not be validated.
   ** Warning ** ProcessScheduleInput: Schedule:Day:Interval="RES INFIL_U 1 RANGE HOOD SCHEDULE ALLDAY4", Blank Schedule Type Limits Name input -- will not be validated.
   ** Warning ** ProcessScheduleInput: Schedule:Day:Interval="RES INFIL_U 1 RANGE HOOD SCHEDULE ALLDAY5", Blank Schedule Type Limits Name input -- will not be validated.
   ** Warning ** ProcessScheduleInput: Schedule:Day:Interval="RES INFIL_U 1 RANGE HOOD SCHEDULE ALLDAY6", Blank Schedule Type Limits Name input -- will not be validated.
   ** Warning ** ProcessScheduleInput: Schedule:Day:Interval="RES INFIL_U 1 RANGE HOOD SCHEDULE ALLDAY7", Blank Schedule Type Limits Name input -- will not be validated.
   ** Warning ** ProcessScheduleInput: Schedule:Day:Interval="RES INFIL_U 1 RANGE HOOD SCHEDULE ALLDAY8", Blank Schedule Type Limits Name input -- will not be validated.
   ** Warning ** ProcessScheduleInput: Schedule:Day:Interval="RES INFIL_U 1 RANGE HOOD SCHEDULE ALLDAY9", Blank Schedule Type Limits Name input -- will not be validated.
   ** Warning ** ProcessScheduleInput: Schedule:Day:Interval="RES MV_U 1 ENERGY SCHEDULE ALLDAY1", Blank Schedule Type Limits Name input -- will not be validated.
   ** Warning ** ProcessScheduleInput: Schedule:Day:Interval="RES MV_U 1 ENERGY SCHEDULE ALLDAY10", Blank Schedule Type Limits Name input -- will not be validated.
   ** Warning ** ProcessScheduleInput: Schedule:Day:Interval="RES MV_U 1 ENERGY SCHEDULE ALLDAY11", Blank Schedule Type Limits Name input -- will not be validated.
   ** Warning ** ProcessScheduleInput: Schedule:Day:Interval="RES MV_U 1 ENERGY SCHEDULE ALLDAY12", Blank Schedule Type Limits Name input -- will not be validated.
   ** Warning ** ProcessScheduleInput: Schedule:Day:Interval="RES MV_U 1 ENERGY SCHEDULE ALLDAY2", Blank Schedule Type Limits Name input -- will not be validated.
   ** Warning ** ProcessScheduleInput: Schedule:Day:Interval="RES MV_U 1 ENERGY SCHEDULE ALLDAY3", Blank Schedule Type Limits Name input -- will not be validated.
   ** Warning ** ProcessScheduleInput: Schedule:Day:Interval="RES MV_U 1 ENERGY SCHEDULE ALLDAY4", Blank Schedule Type Limits Name input -- will not be validated.
   ** Warning ** ProcessScheduleInput: Schedule:Day:Interval="RES MV_U 1 ENERGY SCHEDULE ALLDAY5", Blank Schedule Type Limits Name input -- will not be validated.
   ** Warning ** ProcessScheduleInput: Schedule:Day:Interval="RES MV_U 1 ENERGY SCHEDULE ALLDAY6", Blank Schedule Type Limits Name input -- will not be validated.
   ** Warning ** ProcessScheduleInput: Schedule:Day:Interval="RES MV_U 1 ENERGY SCHEDULE ALLDAY7", Blank Schedule Type Limits Name input -- will not be validated.
   ** Warning ** ProcessScheduleInput: Schedule:Day:Interval="RES MV_U 1 ENERGY SCHEDULE ALLDAY8", Blank Schedule Type Limits Name input -- will not be validated.
   ** Warning ** ProcessScheduleInput: Schedule:Day:Interval="RES MV_U 1 ENERGY SCHEDULE ALLDAY9", Blank Schedule Type Limits Name input -- will not be validated.
   ** Warning ** ProcessScheduleInput: Schedule:Day:Interval="RES MV_U 1 SCHEDULE ALLDAY1", Blank Schedule Type Limits Name input -- will not be validated.
   ** Warning ** ProcessScheduleInput: Schedule:Day:Interval="RES MV_U 1 SCHEDULE ALLDAY10", Blank Schedule Type Limits Name input -- will not be validated.
   ** Warning ** ProcessScheduleInput: Schedule:Day:Interval="RES MV_U 1 SCHEDULE ALLDAY11", Blank Schedule Type Limits Name input -- will not be validated.
   ** Warning ** ProcessScheduleInput: Schedule:Day:Interval="RES MV_U 1 SCHEDULE ALLDAY12", Blank Schedule Type Limits Name input -- will not be validated.
   ** Warning ** ProcessScheduleInput: Schedule:Day:Interval="RES MV_U 1 SCHEDULE ALLDAY2", Blank Schedule Type Limits Name input -- will not be validated.
   ** Warning ** ProcessScheduleInput: Schedule:Day:Interval="RES MV_U 1 SCHEDULE ALLDAY3", Blank Schedule Type Limits Name input -- will not be validated.
   ** Warning ** ProcessScheduleInput: Schedule:Day:Interval="RES MV_U 1 SCHEDULE ALLDAY4", Blank Schedule Type Limits Name input -- will not be validated.
   ** Warning ** ProcessScheduleInput: Schedule:Day:Interval="RES MV_U 1 SCHEDULE ALLDAY5", Blank Schedule Type Limits Name input -- will not be validated.
   ** Warning ** ProcessScheduleInput: Schedule:Day:Interval="RES MV_U 1 SCHEDULE ALLDAY6", Blank Schedule Type Limits Name input -- will not be validated.
   ** Warning ** ProcessScheduleInput: Schedule:Day:Interval="RES MV_U 1 SCHEDULE ALLDAY7", Blank Schedule Type Limits Name input -- will not be validated.
   ** Warning ** ProcessScheduleInput: Schedule:Day:Interval="RES MV_U 1 SCHEDULE ALLDAY8", Blank Schedule Type Limits Name input -- will not be validated.
   ** Warning ** ProcessScheduleInput: Schedule:Day:Interval="RES MV_U 1 SCHEDULE ALLDAY9", Blank Schedule Type Limits Name input -- will not be validated.
   ** Warning ** ProcessScheduleInput: Schedule:Day:Interval="RES NV_U 1 AVAILABILITY SCHEDULE ALLDAY1 ON", Blank Schedule Type Limits Name input -- will not be validated.
   ** Warning ** ProcessScheduleInput: Schedule:Day:Interval="RES NV_U 1 AVAILABILITY SCHEDULE ALLDAY1 ON 1", Blank Schedule Type Limits Name input -- will not be validated.
   ** Warning ** ProcessScheduleInput: Schedule:Day:Interval="RES NV_U 1 AVAILABILITY SCHEDULE ALLDAY1 ON 10", Blank Schedule Type Limits Name input -- will not be validated.
   ** Warning ** ProcessScheduleInput: Schedule:Day:Interval="RES NV_U 1 AVAILABILITY SCHEDULE ALLDAY1 ON 11", Blank Schedule Type Limits Name input -- will not be validated.
   ** Warning ** ProcessScheduleInput: Schedule:Day:Interval="RES NV_U 1 AVAILABILITY SCHEDULE ALLDAY1 ON 2", Blank Schedule Type Limits Name input -- will not be validated.
   ** Warning ** ProcessScheduleInput: Schedule:Day:Interval="RES NV_U 1 AVAILABILITY SCHEDULE ALLDAY1 ON 3", Blank Schedule Type Limits Name input -- will not be validated.
   ** Warning ** ProcessScheduleInput: Schedule:Day:Interval="RES NV_U 1 AVAILABILITY SCHEDULE ALLDAY1 ON 4", Blank Schedule Type Limits Name input -- will not be validated.
   ** Warning ** ProcessScheduleInput: Schedule:Day:Interval="RES NV_U 1 AVAILABILITY SCHEDULE ALLDAY1 ON 5", Blank Schedule Type Limits Name input -- will not be validated.
   ** Warning ** ProcessScheduleInput: Schedule:Day:Interval="RES NV_U 1 AVAILABILITY SCHEDULE ALLDAY1 ON 6", Blank Schedule Type Limits Name input -- will not be validated.
   ** Warning ** ProcessScheduleInput: Schedule:Day:Interval="RES NV_U 1 AVAILABILITY SCHEDULE ALLDAY1 ON 7", Blank Schedule Type Limits Name input -- will not be validated.
   ** Warning ** ProcessScheduleInput: Schedule:Day:Interval="RES NV_U 1 AVAILABILITY SCHEDULE ALLDAY1 ON 8", Blank Schedule Type Limits Name input -- will not be validated.
   ** Warning ** ProcessScheduleInput: Schedule:Day:Interval="RES NV_U 1 AVAILABILITY SCHEDULE ALLDAY1 ON 9", Blank Schedule Type Limits Name input -- will not be validated.
   ** Warning ** ProcessScheduleInput: Schedule:Day:Interval="RES NV_U 1 TEMP SCHEDULE ALLDAY1", Blank Schedule Type Limits Name input -- will not be validated.
   ** Warning ** ProcessScheduleInput: Schedule:Day:Interval="RES NV_U 1 TEMP SCHEDULE ALLDAY10", Blank Schedule Type Limits Name input -- will not be validated.
   ** Warning ** ProcessScheduleInput: Schedule:Day:Interval="RES NV_U 1 TEMP SCHEDULE ALLDAY11", Blank Schedule Type Limits Name input -- will not be validated.
   ** Warning ** ProcessScheduleInput: Schedule:Day:Interval="RES NV_U 1 TEMP SCHEDULE ALLDAY12", Blank Schedule Type Limits Name input -- will not be validated.
   ** Warning ** ProcessScheduleInput: Schedule:Day:Interval="RES NV_U 1 TEMP SCHEDULE ALLDAY2", Blank Schedule Type Limits Name input -- will not be validated.
   ** Warning ** ProcessScheduleInput: Schedule:Day:Interval="RES NV_U 1 TEMP SCHEDULE ALLDAY3", Blank Schedule Type Limits Name input -- will not be validated.
   ** Warning ** ProcessScheduleInput: Schedule:Day:Interval="RES NV_U 1 TEMP SCHEDULE ALLDAY4", Blank Schedule Type Limits Name input -- will not be validated.
   ** Warning ** ProcessScheduleInput: Schedule:Day:Interval="RES NV_U 1 TEMP SCHEDULE ALLDAY5", Blank Schedule Type Limits Name input -- will not be validated.
   ** Warning ** ProcessScheduleInput: Schedule:Day:Interval="RES NV_U 1 TEMP SCHEDULE ALLDAY6", Blank Schedule Type Limits Name input -- will not be validated.
   ** Warning ** ProcessScheduleInput: Schedule:Day:Interval="RES NV_U 1 TEMP SCHEDULE ALLDAY7", Blank Schedule Type Limits Name input -- will not be validated.
   ** Warning ** ProcessScheduleInput: Schedule:Day:Interval="RES NV_U 1 TEMP SCHEDULE ALLDAY8", Blank Schedule Type Limits Name input -- will not be validated.
   ** Warning ** ProcessScheduleInput: Schedule:Day:Interval="RES NV_U 1 TEMP SCHEDULE ALLDAY9", Blank Schedule Type Limits Name input -- will not be validated.
   ** Warning ** ProcessScheduleInput: Schedule:Day:Interval="RESIDENTIAL CEILING FAN SCHEDULE ALLDAY1", Blank Schedule Type Limits Name input -- will not be validated.
   ** Warning ** ProcessScheduleInput: Schedule:Day:Interval="RESIDENTIAL CEILING FAN SCHEDULE ALLDAY10", Blank Schedule Type Limits Name input -- will not be validated.
   ** Warning ** ProcessScheduleInput: Schedule:Day:Interval="RESIDENTIAL CEILING FAN SCHEDULE ALLDAY11", Blank Schedule Type Limits Name input -- will not be validated.
   ** Warning ** ProcessScheduleInput: Schedule:Day:Interval="RESIDENTIAL CEILING FAN SCHEDULE ALLDAY12", Blank Schedule Type Limits Name input -- will not be validated.
   ** Warning ** ProcessScheduleInput: Schedule:Day:Interval="RESIDENTIAL CEILING FAN SCHEDULE ALLDAY2", Blank Schedule Type Limits Name input -- will not be validated.
   ** Warning ** ProcessScheduleInput: Schedule:Day:Interval="RESIDENTIAL CEILING FAN SCHEDULE ALLDAY3", Blank Schedule Type Limits Name input -- will not be validated.
   ** Warning ** ProcessScheduleInput: Schedule:Day:Interval="RESIDENTIAL CEILING FAN SCHEDULE ALLDAY4", Blank Schedule Type Limits Name input -- will not be validated.
   ** Warning ** ProcessScheduleInput: Schedule:Day:Interval="RESIDENTIAL CEILING FAN SCHEDULE ALLDAY5", Blank Schedule Type Limits Name input -- will not be validated.
   ** Warning ** ProcessScheduleInput: Schedule:Day:Interval="RESIDENTIAL CEILING FAN SCHEDULE ALLDAY6", Blank Schedule Type Limits Name input -- will not be validated.
   ** Warning ** ProcessScheduleInput: Schedule:Day:Interval="RESIDENTIAL CEILING FAN SCHEDULE ALLDAY7", Blank Schedule Type Limits Name input -- will not be validated.
   ** Warning ** ProcessScheduleInput: Schedule:Day:Interval="RESIDENTIAL CEILING FAN SCHEDULE ALLDAY8", Blank Schedule Type Limits Name input -- will not be validated.
   ** Warning ** ProcessScheduleInput: Schedule:Day:Interval="RESIDENTIAL CEILING FAN SCHEDULE ALLDAY9", Blank Schedule Type Limits Name input -- will not be validated.
   ** Warning ** ProcessScheduleInput: Schedule:Day:Interval="RESIDENTIAL WINDOW SHADING SCHEDULE ALLDAY1", Blank Schedule Type Limits Name input -- will not be validated.
   ** Warning ** ProcessScheduleInput: Schedule:Day:Interval="RESIDENTIAL WINDOW SHADING SCHEDULE ALLDAY1 1", Blank Schedule Type Limits Name input -- will not be validated.
   ** Warning ** ProcessScheduleInput: Schedule:Day:Interval="RESIDENTIAL WINDOW SHADING SCHEDULE ALLDAY1 2", Blank Schedule Type Limits Name input -- will not be validated.
   ** Warning ** ProcessScheduleInput: Schedule:Day:Interval="RESIDENTIAL WINDOW SHADING SCHEDULE ALLDAY1 3", Blank Schedule Type Limits Name input -- will not be validated.
   ** Warning ** ProcessScheduleInput: Schedule:Day:Interval="RESIDENTIAL WINDOW SHADING SCHEDULE ALLDAY10", Blank Schedule Type Limits Name input -- will not be validated.
   ** Warning ** ProcessScheduleInput: Schedule:Day:Interval="RESIDENTIAL WINDOW SHADING SCHEDULE ALLDAY10 1", Blank Schedule Type Limits Name input -- will not be validated.
   ** Warning ** ProcessScheduleInput: Schedule:Day:Interval="RESIDENTIAL WINDOW SHADING SCHEDULE ALLDAY10 2", Blank Schedule Type Limits Name input -- will not be validated.
   ** Warning ** ProcessScheduleInput: Schedule:Day:Interval="RESIDENTIAL WINDOW SHADING SCHEDULE ALLDAY10 3", Blank Schedule Type Limits Name input -- will not be validated.
   ** Warning ** ProcessScheduleInput: Schedule:Day:Interval="RESIDENTIAL WINDOW SHADING SCHEDULE ALLDAY11", Blank Schedule Type Limits Name input -- will not be validated.
   ** Warning ** ProcessScheduleInput: Schedule:Day:Interval="RESIDENTIAL WINDOW SHADING SCHEDULE ALLDAY11 1", Blank Schedule Type Limits Name input -- will not be validated.
   ** Warning ** ProcessScheduleInput: Schedule:Day:Interval="RESIDENTIAL WINDOW SHADING SCHEDULE ALLDAY11 2", Blank Schedule Type Limits Name input -- will not be validated.
   ** Warning ** ProcessScheduleInput: Schedule:Day:Interval="RESIDENTIAL WINDOW SHADING SCHEDULE ALLDAY11 3", Blank Schedule Type Limits Name input -- will not be validated.
   ** Warning ** ProcessScheduleInput: Schedule:Day:Interval="RESIDENTIAL WINDOW SHADING SCHEDULE ALLDAY12", Blank Schedule Type Limits Name input -- will not be validated.
   ** Warning ** ProcessScheduleInput: Schedule:Day:Interval="RESIDENTIAL WINDOW SHADING SCHEDULE ALLDAY12 1", Blank Schedule Type Limits Name input -- will not be validated.
   ** Warning ** ProcessScheduleInput: Schedule:Day:Interval="RESIDENTIAL WINDOW SHADING SCHEDULE ALLDAY12 2", Blank Schedule Type Limits Name input -- will not be validated.
   ** Warning ** ProcessScheduleInput: Schedule:Day:Interval="RESIDENTIAL WINDOW SHADING SCHEDULE ALLDAY12 3", Blank Schedule Type Limits Name input -- will not be validated.
   ** Warning ** ProcessScheduleInput: Schedule:Day:Interval="RESIDENTIAL WINDOW SHADING SCHEDULE ALLDAY2", Blank Schedule Type Limits Name input -- will not be validated.
   ** Warning ** ProcessScheduleInput: Schedule:Day:Interval="RESIDENTIAL WINDOW SHADING SCHEDULE ALLDAY2 1", Blank Schedule Type Limits Name input -- will not be validated.
   ** Warning ** ProcessScheduleInput: Schedule:Day:Interval="RESIDENTIAL WINDOW SHADING SCHEDULE ALLDAY2 2", Blank Schedule Type Limits Name input -- will not be validated.
   ** Warning ** ProcessScheduleInput: Schedule:Day:Interval="RESIDENTIAL WINDOW SHADING SCHEDULE ALLDAY2 3", Blank Schedule Type Limits Name input -- will not be validated.
   ** Warning ** ProcessScheduleInput: Schedule:Day:Interval="RESIDENTIAL WINDOW SHADING SCHEDULE ALLDAY3", Blank Schedule Type Limits Name input -- will not be validated.
   ** Warning ** ProcessScheduleInput: Schedule:Day:Interval="RESIDENTIAL WINDOW SHADING SCHEDULE ALLDAY3 1", Blank Schedule Type Limits Name input -- will not be validated.
   ** Warning ** ProcessScheduleInput: Schedule:Day:Interval="RESIDENTIAL WINDOW SHADING SCHEDULE ALLDAY3 2", Blank Schedule Type Limits Name input -- will not be validated.
   ** Warning ** ProcessScheduleInput: Schedule:Day:Interval="RESIDENTIAL WINDOW SHADING SCHEDULE ALLDAY3 3", Blank Schedule Type Limits Name input -- will not be validated.
   ** Warning ** ProcessScheduleInput: Schedule:Day:Interval="RESIDENTIAL WINDOW SHADING SCHEDULE ALLDAY4", Blank Schedule Type Limits Name input -- will not be validated.
   ** Warning ** ProcessScheduleInput: Schedule:Day:Interval="RESIDENTIAL WINDOW SHADING SCHEDULE ALLDAY4 1", Blank Schedule Type Limits Name input -- will not be validated.
   ** Warning ** ProcessScheduleInput: Schedule:Day:Interval="RESIDENTIAL WINDOW SHADING SCHEDULE ALLDAY4 2", Blank Schedule Type Limits Name input -- will not be validated.
   ** Warning ** ProcessScheduleInput: Schedule:Day:Interval="RESIDENTIAL WINDOW SHADING SCHEDULE ALLDAY4 3", Blank Schedule Type Limits Name input -- will not be validated.
   ** Warning ** ProcessScheduleInput: Schedule:Day:Interval="RESIDENTIAL WINDOW SHADING SCHEDULE ALLDAY5", Blank Schedule Type Limits Name input -- will not be validated.
   ** Warning ** ProcessScheduleInput: Schedule:Day:Interval="RESIDENTIAL WINDOW SHADING SCHEDULE ALLDAY5 1", Blank Schedule Type Limits Name input -- will not be validated.
   ** Warning ** ProcessScheduleInput: Schedule:Day:Interval="RESIDENTIAL WINDOW SHADING SCHEDULE ALLDAY5 2", Blank Schedule Type Limits Name input -- will not be validated.
   ** Warning ** ProcessScheduleInput: Schedule:Day:Interval="RESIDENTIAL WINDOW SHADING SCHEDULE ALLDAY5 3", Blank Schedule Type Limits Name input -- will not be validated.
   ** Warning ** ProcessScheduleInput: Schedule:Day:Interval="RESIDENTIAL WINDOW SHADING SCHEDULE ALLDAY6", Blank Schedule Type Limits Name input -- will not be validated.
   ** Warning ** ProcessScheduleInput: Schedule:Day:Interval="RESIDENTIAL WINDOW SHADING SCHEDULE ALLDAY6 1", Blank Schedule Type Limits Name input -- will not be validated.
   ** Warning ** ProcessScheduleInput: Schedule:Day:Interval="RESIDENTIAL WINDOW SHADING SCHEDULE ALLDAY6 2", Blank Schedule Type Limits Name input -- will not be validated.
   ** Warning ** ProcessScheduleInput: Schedule:Day:Interval="RESIDENTIAL WINDOW SHADING SCHEDULE ALLDAY6 3", Blank Schedule Type Limits Name input -- will not be validated.
   ** Warning ** ProcessScheduleInput: Schedule:Day:Interval="RESIDENTIAL WINDOW SHADING SCHEDULE ALLDAY7", Blank Schedule Type Limits Name input -- will not be validated.
   ** Warning ** ProcessScheduleInput: Schedule:Day:Interval="RESIDENTIAL WINDOW SHADING SCHEDULE ALLDAY7 1", Blank Schedule Type Limits Name input -- will not be validated.
   ** Warning ** ProcessScheduleInput: Schedule:Day:Interval="RESIDENTIAL WINDOW SHADING SCHEDULE ALLDAY7 2", Blank Schedule Type Limits Name input -- will not be validated.
   ** Warning ** ProcessScheduleInput: Schedule:Day:Interval="RESIDENTIAL WINDOW SHADING SCHEDULE ALLDAY7 3", Blank Schedule Type Limits Name input -- will not be validated.
   ** Warning ** ProcessScheduleInput: Schedule:Day:Interval="RESIDENTIAL WINDOW SHADING SCHEDULE ALLDAY8", Blank Schedule Type Limits Name input -- will not be validated.
   ** Warning ** ProcessScheduleInput: Schedule:Day:Interval="RESIDENTIAL WINDOW SHADING SCHEDULE ALLDAY8 1", Blank Schedule Type Limits Name input -- will not be validated.
   ** Warning ** ProcessScheduleInput: Schedule:Day:Interval="RESIDENTIAL WINDOW SHADING SCHEDULE ALLDAY8 2", Blank Schedule Type Limits Name input -- will not be validated.
   ** Warning ** ProcessScheduleInput: Schedule:Day:Interval="RESIDENTIAL WINDOW SHADING SCHEDULE ALLDAY8 3", Blank Schedule Type Limits Name input -- will not be validated.
   ** Warning ** ProcessScheduleInput: Schedule:Day:Interval="RESIDENTIAL WINDOW SHADING SCHEDULE ALLDAY9", Blank Schedule Type Limits Name input -- will not be validated.
   ** Warning ** ProcessScheduleInput: Schedule:Day:Interval="RESIDENTIAL WINDOW SHADING SCHEDULE ALLDAY9 1", Blank Schedule Type Limits Name input -- will not be validated.
   ** Warning ** ProcessScheduleInput: Schedule:Day:Interval="RESIDENTIAL WINDOW SHADING SCHEDULE ALLDAY9 2", Blank Schedule Type Limits Name input -- will not be validated.
   ** Warning ** ProcessScheduleInput: Schedule:Day:Interval="RESIDENTIAL WINDOW SHADING SCHEDULE ALLDAY9 3", Blank Schedule Type Limits Name input -- will not be validated.
   ** Warning ** ProcessScheduleInput: Schedule:Day:Interval="SCHEDULE DAY 11", Blank Schedule Type Limits Name input -- will not be validated.
   ** Warning ** ProcessScheduleInput: Schedule:Day:Interval="SCHEDULE DAY 17", Blank Schedule Type Limits Name input -- will not be validated.
   ** Warning ** ProcessScheduleInput: Schedule:Day:Interval="SCHEDULE DAY 18", Blank Schedule Type Limits Name input -- will not be validated.
   ** Warning ** ProcessScheduleInput: Schedule:Day:Interval="SCHEDULE DAY 19", Blank Schedule Type Limits Name input -- will not be validated.
   ** Warning ** ProcessScheduleInput: Schedule:Day:Interval="SCHEDULE DAY 20", Blank Schedule Type Limits Name input -- will not be validated.
   ** Warning ** ProcessScheduleInput: Schedule:Day:Interval="SCHEDULE DAY 21", Blank Schedule Type Limits Name input -- will not be validated.
   ** Warning ** ProcessScheduleInput: Schedule:Day:Interval="SCHEDULE DAY 22", Blank Schedule Type Limits Name input -- will not be validated.
   ** Warning ** ProcessScheduleInput: Schedule:Day:Interval="SCHEDULE DAY 23", Blank Schedule Type Limits Name input -- will not be validated.
   ** Warning ** ProcessScheduleInput: Schedule:Day:Interval="SCHEDULE DAY 3", Blank Schedule Type Limits Name input -- will not be validated.
   ** Warning ** ProcessScheduleInput: Schedule:Day:Interval="SCHEDULE DAY 4", Blank Schedule Type Limits Name input -- will not be validated.
   ** Warning ** ProcessScheduleInput: Schedule:Day:Interval="SCHEDULE DAY 5", Blank Schedule Type Limits Name input -- will not be validated.
   ** Warning ** ProcessScheduleInput: Schedule:Day:Interval="SCHEDULE DAY 6", Blank Schedule Type Limits Name input -- will not be validated.
   ** Warning ** ProcessScheduleInput: Schedule:Year="RES INFIL_U 1 BATH EXHAUST SCHEDULE", Blank Schedule Type Limits Name input -- will not be validated.
   ** Warning ** ProcessScheduleInput: Schedule:Year="RES INFIL_U 1 CLOTHES DRYER EXHAUST SCHEDULE", Blank Schedule Type Limits Name input -- will not be validated.
   ** Warning ** ProcessScheduleInput: Schedule:Year="RES INFIL_U 1 RANGE HOOD SCHEDULE", Blank Schedule Type Limits Name input -- will not be validated.
   ** Warning ** ProcessScheduleInput: Schedule:Year="RES MV_U 1 ENERGY SCHEDULE", Blank Schedule Type Limits Name input -- will not be validated.
   ** Warning ** ProcessScheduleInput: Schedule:Year="RES MV_U 1 SCHEDULE", Blank Schedule Type Limits Name input -- will not be validated.
   ** Warning ** ProcessScheduleInput: Schedule:Year="RES NV_U 1 AVAIL SCHEDULE", Blank Schedule Type Limits Name input -- will not be validated.
   ** Warning ** ProcessScheduleInput: Schedule:Year="RES NV_U 1 TEMP SCHEDULE", Blank Schedule Type Limits Name input -- will not be validated.
   ** Warning ** ProcessScheduleInput: Schedule:Year="RESIDENTIAL CEILING FAN SCHEDULE", Blank Schedule Type Limits Name input -- will not be validated.
   ** Warning ** ProcessScheduleInput: Schedule:Year="RESIDENTIAL WINDOW SHADING SCHEDULE", Blank Schedule Type Limits Name input -- will not be validated.
   ** Warning ** ProcessScheduleInput: Schedule:Year="RESIDENTIAL WINDOW SHADING SCHEDULE 1", Blank Schedule Type Limits Name input -- will not be validated.
   ** Warning ** ProcessScheduleInput: Schedule:Year="RESIDENTIAL WINDOW SHADING SCHEDULE 2", Blank Schedule Type Limits Name input -- will not be validated.
   ** Warning ** ProcessScheduleInput: Schedule:Year="RESIDENTIAL WINDOW SHADING SCHEDULE 3", Blank Schedule Type Limits Name input -- will not be validated.
   ** Warning ** ProcessScheduleInput: Schedule:Constant="RESIDENTIAL CLOTHES WASHER TEMPERATURE SCHEDULE", Blank Schedule Type Limits Name input -- will not be validated.
   ** Warning ** ProcessScheduleInput: Schedule:Constant="RESIDENTIAL DISHWASHER TEMPERATURE SCHEDULE", Blank Schedule Type Limits Name input -- will not be validated.
   ** Warning ** ProcessScheduleInput: Schedule:Constant="ALWAYS ON CONTINUOUS", Blank Schedule Type Limits Name input -- will not be validated.
   ** Warning ** GetSurfaceData: WindowProperty:ShadingControl: "WINDOWSHADINGCONTROL" is not referenced by any window.
   ** Warning ** GetSurfaceData: WindowProperty:ShadingControl: "WINDOWSHADINGCONTROL 1" is not referenced by any window.
   ** Warning ** GetSurfaceData: WindowProperty:ShadingControl: "WINDOWSHADINGCONTROL 2" is not referenced by any window.
   ** Warning ** GetSurfaceData: WindowProperty:ShadingControl: "WINDOWSHADINGCONTROL 3" is not referenced by any window.
   ************* Note that the following warning(s) may/will occur if you have not enclosed your zone completely.
   ** Warning ** Entered Zone Volumes differ from calculated zone volume(s).
   **   ~~~   ** ...use Output:Diagnostics,DisplayExtraWarnings; to show more details on individual zones.
   ** Warning ** CheckUsedConstructions: There are 5 nominally unused constructions in input.
   **   ~~~   ** For explicit details on each unused construction, use Output:Diagnostics,DisplayExtraWarnings;
   ** Warning ** Surfaces in Zone="UNFINISHED ATTIC ZONE" do not define an enclosure.
   **   ~~~   ** Number of surfaces <= 3, view factors are set to force reciprocity but may not fulfill completeness.
   **   ~~~   ** Reciprocity means that radiant exchange between two surfaces will match and not lead to an energy loss.
   **   ~~~   ** Completeness means that all of the view factors between a surface and the other surfaces in a zone add up to unity.
   **   ~~~   ** So, when there are three or less surfaces in a zone, EnergyPlus will make sure there are no losses of energy but
   **   ~~~   ** it will not exchange the full amount of radiation with the rest of the zone as it would if there was a completed enclosure.
   ** Warning ** The Standard Ratings is calculated for Coil:Cooling:DX:SingleSpeed = RESIDENTIAL CENTRAL AC COOLING COIL but not at the AHRI test condition due to curve out of bound.
   **   ~~~   **  Review the Standard Ratings calculations in the Engineering Reference for this coil type. Also, use Output:Diagnostics, DisplayExtraWarnings for further guidance.
   ** Warning ** Check input. Pump nominal power or motor efficiency is set to 0, for pump=PUMP VARIABLE SPEED 1
   ** Warning ** Output:Meter: invalid Name="DISTRICTCOOLING:FACILITY" - not found.
   ** Warning ** Output:Meter: invalid Name="DISTRICTHEATING:FACILITY" - not found.
   ** Warning ** Output:Meter:MeterFileOnly requested for "Electricity:Facility" (TimeStep), already on "Output:Meter". Will report to both eplusout.eso and eplusout.mtr
   ************* Testing Individual Branch Integrity
   ************* All Branches passed integrity testing
   ************* Testing Individual Supply Air Path Integrity
   ************* All Supply Air Paths passed integrity testing
   ************* Testing Individual Return Air Path Integrity
   ************* All Return Air Paths passed integrity testing
   ************* No node connection errors were found.
   ************* Beginning Simulation
   ** Warning ** CalcDoe2DXCoil: Coil:Cooling:DX:SingleSpeed="RESIDENTIAL CENTRAL AC COOLING COIL" - Air volume flow rate per watt of rated total cooling capacity is out of range at 6.969E-005 m3/s/W.
   **   ~~~   **  Environment=RUN PERIOD, at Simulation time=05/11 18:00 - 19:00
   **   ~~~   ** Expected range for VolumeFlowPerRatedTotalCapacity=[2.684E-005--6.713E-005]
   **   ~~~   ** Possible causes include inconsistent air flow rates in system components,
   **   ~~~   ** or variable air volume [VAV] system using incorrect coil type.
   ************* Simulation Error Summary *************
   ** Warning ** The following Report Variables were requested but not generated
   **   ~~~   ** because IDF did not contain these elements or misspelled variable name -- check .rdd file
   ************* Key=residential furnace gas heating coil, VarName=HEATING COIL TOTAL HEATING ENERGY, Frequency=Annual
   ************* Key=residential furnace gas heating coil, VarName=BASEBOARD TOTAL HEATING ENERGY, Frequency=Annual
   ************* Key=residential furnace gas heating coil, VarName=BASEBOARD TOTAL HEATING ENERGY, Frequency=Annual
   ************* Key=residential furnace gas heating coil, VarName=BASEBOARD TOTAL HEATING ENERGY, Frequency=Annual
   ************* Key=residential furnace gas heating coil, VarName=HEATING COIL HEATING ENERGY, Frequency=Annual
   ************* Key=residential furnace gas heating coil, VarName=HEATING COIL HEATING ENERGY, Frequency=Annual
   ************* Key=residential furnace gas heating coil, VarName=HEATING COIL HEATING ENERGY, Frequency=Annual
   ************* Key=residential furnace gas heating coil, VarName=HEATING COIL TOTAL HEATING ENERGY, Frequency=Annual
   ************* Key=residential furnace gas heating coil, VarName=HEATING COIL TOTAL HEATING ENERGY, Frequency=Annual
   ************* Key=residential furnace gas heating coil, VarName=BOILER HEATING ENERGY, Frequency=Annual
   ************* Key=residential furnace gas heating coil, VarName=BOILER HEATING ENERGY, Frequency=Annual
   ************* Key=residential furnace gas heating coil, VarName=BOILER HEATING ENERGY, Frequency=Annual
   ************* There are 3 unused schedules in input.
   ************* There are 43 unused week schedules in input.
   ************* There are 27 unused day schedules in input.
   ************* Use Output:Diagnostics,DisplayUnusedSchedules; to see them.
   *************
   ************* ===== Recurring Error Summary =====
   ************* The following recurring error messages occurred.
   *************
   *************  ** Warning ** CalcDoe2DXCoil: Coil:Cooling:DX:SingleSpeed="RESIDENTIAL CENTRAL AC COOLING COIL" - Air volume flow rate per watt of rated total cooling capacity is out of range error continues...
   *************  **   ~~~   **   This error occurred 108552 total times;
   *************  **   ~~~   **   during Warmup 0 times;
   *************  **   ~~~   **   during Sizing 0 times.
   *************  **   ~~~   **   Max=6.970209E-005  Min=6.716195E-005
   *************
   *************
   ************* ===== Final Error Summary =====
   ************* The following error categories occurred.  Consider correcting or noting.
   ************* Nominally Unused Constructions
   ************* ..The nominally unused constructions warning is provided to alert you to potential conditions that can cause
   ************* ..extra time during simulation. Each construction is calculated by the algorithm indicated in the HeatBalanceAlgorithm
   ************* ..object. You may remove the constructions indicated (when you use the DisplayExtraWarnings option).
   *************
   ************* EnergyPlus Warmup Error Summary. During Warmup: 0 Warning; 0 Severe Errors.
   ************* EnergyPlus Sizing Error Summary. During Sizing: 0 Warning; 0 Severe Errors.
   ************* EnergyPlus Completed Successfully-- 108738 Warning; 0 Severe Errors; Elapsed Time=00hr 00min 11.01sec
