{
   "completed_at" : "20170801T162433Z",
   "completed_status" : "Success",
   "created_at" : "20170801T162321Z",
   "current_step" : 1,
   "eplusout_err" : "Program Version,EnergyPlus, Version 8.7.0-78a111df4a, YMD=2017.08.01 10:24,IDD_Version 8.7.0\n   ** Warning ** Timestep: Requested number (1) is less than the suggested minimum of 4.\n   **   ~~~   ** Please see entry for Timestep in Input/Output Reference for discussion of considerations.\n   ** Warning ** Site:GroundTemperature:BuildingSurface: Some values fall outside the range of 15-25C.\n   **   ~~~   ** These values may be inappropriate.  Please consult the Input Output Reference for more details.\n   ** Warning ** ProcessScheduleInput: Schedule:Day:Interval=\"RES INFIL_U 1 BATH EXHAUST SCHEDULE ALLDAY1\", Blank Schedule Type Limits Name input -- will not be validated.\n   ** Warning ** ProcessScheduleInput: Schedule:Day:Interval=\"RES INFIL_U 1 BATH EXHAUST SCHEDULE ALLDAY10\", Blank Schedule Type Limits Name input -- will not be validated.\n   ** Warning ** ProcessScheduleInput: Schedule:Day:Interval=\"RES INFIL_U 1 BATH EXHAUST SCHEDULE ALLDAY11\", Blank Schedule Type Limits Name input -- will not be validated.\n   ** Warning ** ProcessScheduleInput: Schedule:Day:Interval=\"RES INFIL_U 1 BATH EXHAUST SCHEDULE ALLDAY12\", Blank Schedule Type Limits Name input -- will not be validated.\n   ** Warning ** ProcessScheduleInput: Schedule:Day:Interval=\"RES INFIL_U 1 BATH EXHAUST SCHEDULE ALLDAY2\", Blank Schedule Type Limits Name input -- will not be validated.\n   ** Warning ** ProcessScheduleInput: Schedule:Day:Interval=\"RES INFIL_U 1 BATH EXHAUST SCHEDULE ALLDAY3\", Blank Schedule Type Limits Name input -- will not be validated.\n   ** Warning ** ProcessScheduleInput: Schedule:Day:Interval=\"RES INFIL_U 1 BATH EXHAUST SCHEDULE ALLDAY4\", Blank Schedule Type Limits Name input -- will not be validated.\n   ** Warning ** ProcessScheduleInput: Schedule:Day:Interval=\"RES INFIL_U 1 BATH EXHAUST SCHEDULE ALLDAY5\", Blank Schedule Type Limits Name input -- will not be validated.\n   ** Warning ** ProcessScheduleInput: Schedule:Day:Interval=\"RES INFIL_U 1 BATH EXHAUST SCHEDULE ALLDAY6\", Blank Schedule Type Limits Name input -- will not be validated.\n   ** Warning ** ProcessScheduleInput: Schedule:Day:Interval=\"RES INFIL_U 1 BATH EXHAUST SCHEDULE ALLDAY7\", Blank Schedule Type Limits Name input -- will not be validated.\n   ** Warning ** ProcessScheduleInput: Schedule:Day:Interval=\"RES INFIL_U 1 BATH EXHAUST SCHEDULE ALLDAY8\", Blank Schedule Type Limits Name input -- will not be validated.\n   ** Warning ** ProcessScheduleInput: Schedule:Day:Interval=\"RES INFIL_U 1 BATH EXHAUST SCHEDULE ALLDAY9\", Blank Schedule Type Limits Name input -- will not be validated.\n   ** Warning ** ProcessScheduleInput: Schedule:Day:Interval=\"RES INFIL_U 1 CLOTHES DRYER EXHAUST SCHEDULE ALLDAY1\", Blank Schedule Type Limits Name input -- will not be validated.\n   ** Warning ** ProcessScheduleInput: Schedule:Day:Interval=\"RES INFIL_U 1 CLOTHES DRYER EXHAUST SCHEDULE ALLDAY10\", Blank Schedule Type Limits Name input -- will not be validated.\n   ** Warning ** ProcessScheduleInput: Schedule:Day:Interval=\"RES INFIL_U 1 CLOTHES DRYER EXHAUST SCHEDULE ALLDAY11\", Blank Schedule Type Limits Name input -- will not be validated.\n   ** Warning ** ProcessScheduleInput: Schedule:Day:Interval=\"RES INFIL_U 1 CLOTHES DRYER EXHAUST SCHEDULE ALLDAY12\", Blank Schedule Type Limits Name input -- will not be validated.\n   ** Warning ** ProcessScheduleInput: Schedule:Day:Interval=\"RES INFIL_U 1 CLOTHES DRYER EXHAUST SCHEDULE ALLDAY2\", Blank Schedule Type Limits Name input -- will not be validated.\n   ** Warning ** ProcessScheduleInput: Schedule:Day:Interval=\"RES INFIL_U 1 CLOTHES DRYER EXHAUST SCHEDULE ALLDAY3\", Blank Schedule Type Limits Name input -- will not be validated.\n   ** Warning ** ProcessScheduleInput: Schedule:Day:Interval=\"RES INFIL_U 1 CLOTHES DRYER EXHAUST SCHEDULE ALLDAY4\", Blank Schedule Type Limits Name input -- will not be validated.\n   ** Warning ** ProcessScheduleInput: Schedule:Day:Interval=\"RES INFIL_U 1 CLOTHES DRYER EXHAUST SCHEDULE ALLDAY5\", Blank Schedule Type Limits Name input -- will not be validated.\n   ** Warning ** ProcessScheduleInput: Schedule:Day:Interval=\"RES INFIL_U 1 CLOTHES DRYER EXHAUST SCHEDULE ALLDAY6\", Blank Schedule Type Limits Name input -- will not be validated.\n   ** Warning ** ProcessScheduleInput: Schedule:Day:Interval=\"RES INFIL_U 1 CLOTHES DRYER EXHAUST SCHEDULE ALLDAY7\", Blank Schedule Type Limits Name input -- will not be validated.\n   ** Warning ** ProcessScheduleInput: Schedule:Day:Interval=\"RES INFIL_U 1 CLOTHES DRYER EXHAUST SCHEDULE ALLDAY8\", Blank Schedule Type Limits Name input -- will not be validated.\n   ** Warning ** ProcessScheduleInput: Schedule:Day:Interval=\"RES INFIL_U 1 CLOTHES DRYER EXHAUST SCHEDULE ALLDAY9\", Blank Schedule Type Limits Name input -- will not be validated.\n   ** Warning ** ProcessScheduleInput: Schedule:Day:Interval=\"RES INFIL_U 1 RANGE HOOD SCHEDULE ALLDAY1\", Blank Schedule Type Limits Name input -- will not be validated.\n   ** Warning ** ProcessScheduleInput: Schedule:Day:Interval=\"RES INFIL_U 1 RANGE HOOD SCHEDULE ALLDAY10\", Blank Schedule Type Limits Name input -- will not be validated.\n   ** Warning ** ProcessScheduleInput: Schedule:Day:Interval=\"RES INFIL_U 1 RANGE HOOD SCHEDULE ALLDAY11\", Blank Schedule Type Limits Name input -- will not be validated.\n   ** Warning ** ProcessScheduleInput: Schedule:Day:Interval=\"RES INFIL_U 1 RANGE HOOD SCHEDULE ALLDAY12\", Blank Schedule Type Limits Name input -- will not be validated.\n   ** Warning ** ProcessScheduleInput: Schedule:Day:Interval=\"RES INFIL_U 1 RANGE HOOD SCHEDULE ALLDAY2\", Blank Schedule Type Limits Name input -- will not be validated.\n   ** Warning ** ProcessScheduleInput: Schedule:Day:Interval=\"RES INFIL_U 1 RANGE HOOD SCHEDULE ALLDAY3\", Blank Schedule Type Limits Name input -- will not be validated.\n   ** Warning ** ProcessScheduleInput: Schedule:Day:Interval=\"RES INFIL_U 1 RANGE HOOD SCHEDULE ALLDAY4\", Blank Schedule Type Limits Name input -- will not be validated.\n   ** Warning ** ProcessScheduleInput: Schedule:Day:Interval=\"RES INFIL_U 1 RANGE HOOD SCHEDULE ALLDAY5\", Blank Schedule Type Limits Name input -- will not be validated.\n   ** Warning ** ProcessScheduleInput: Schedule:Day:Interval=\"RES INFIL_U 1 RANGE HOOD SCHEDULE ALLDAY6\", Blank Schedule Type Limits Name input -- will not be validated.\n   ** Warning ** ProcessScheduleInput: Schedule:Day:Interval=\"RES INFIL_U 1 RANGE HOOD SCHEDULE ALLDAY7\", Blank Schedule Type Limits Name input -- will not be validated.\n   ** Warning ** ProcessScheduleInput: Schedule:Day:Interval=\"RES INFIL_U 1 RANGE HOOD SCHEDULE ALLDAY8\", Blank Schedule Type Limits Name input -- will not be validated.\n   ** Warning ** ProcessScheduleInput: Schedule:Day:Interval=\"RES INFIL_U 1 RANGE HOOD SCHEDULE ALLDAY9\", Blank Schedule Type Limits Name input -- will not be validated.\n   ** Warning ** ProcessScheduleInput: Schedule:Day:Interval=\"RES MV_U 1 ENERGY SCHEDULE ALLDAY1\", Blank Schedule Type Limits Name input -- will not be validated.\n   ** Warning ** ProcessScheduleInput: Schedule:Day:Interval=\"RES MV_U 1 ENERGY SCHEDULE ALLDAY10\", Blank Schedule Type Limits Name input -- will not be validated.\n   ** Warning ** ProcessScheduleInput: Schedule:Day:Interval=\"RES MV_U 1 ENERGY SCHEDULE ALLDAY11\", Blank Schedule Type Limits Name input -- will not be validated.\n   ** Warning ** ProcessScheduleInput: Schedule:Day:Interval=\"RES MV_U 1 ENERGY SCHEDULE ALLDAY12\", Blank Schedule Type Limits Name input -- will not be validated.\n   ** Warning ** ProcessScheduleInput: Schedule:Day:Interval=\"RES MV_U 1 ENERGY SCHEDULE ALLDAY2\", Blank Schedule Type Limits Name input -- will not be validated.\n   ** Warning ** ProcessScheduleInput: Schedule:Day:Interval=\"RES MV_U 1 ENERGY SCHEDULE ALLDAY3\", Blank Schedule Type Limits Name input -- will not be validated.\n   ** Warning ** ProcessScheduleInput: Schedule:Day:Interval=\"RES MV_U 1 ENERGY SCHEDULE ALLDAY4\", Blank Schedule Type Limits Name input -- will not be validated.\n   ** Warning ** ProcessScheduleInput: Schedule:Day:Interval=\"RES MV_U 1 ENERGY SCHEDULE ALLDAY5\", Blank Schedule Type Limits Name input -- will not be validated.\n   ** Warning ** ProcessScheduleInput: Schedule:Day:Interval=\"RES MV_U 1 ENERGY SCHEDULE ALLDAY6\", Blank Schedule Type Limits Name input -- will not be validated.\n   ** Warning ** ProcessScheduleInput: Schedule:Day:Interval=\"RES MV_U 1 ENERGY SCHEDULE ALLDAY7\", Blank Schedule Type Limits Name input -- will not be validated.\n   ** Warning ** ProcessScheduleInput: Schedule:Day:Interval=\"RES MV_U 1 ENERGY SCHEDULE ALLDAY8\", Blank Schedule Type Limits Name input -- will not be validated.\n   ** Warning ** ProcessScheduleInput: Schedule:Day:Interval=\"RES MV_U 1 ENERGY SCHEDULE ALLDAY9\", Blank Schedule Type Limits Name input -- will not be validated.\n   ** Warning ** ProcessScheduleInput: Schedule:Day:Interval=\"RES MV_U 1 SCHEDULE ALLDAY1\", Blank Schedule Type Limits Name input -- will not be validated.\n   ** Warning ** ProcessScheduleInput: Schedule:Day:Interval=\"RES MV_U 1 SCHEDULE ALLDAY10\", Blank Schedule Type Limits Name input -- will not be validated.\n   ** Warning ** ProcessScheduleInput: Schedule:Day:Interval=\"RES MV_U 1 SCHEDULE ALLDAY11\", Blank Schedule Type Limits Name input -- will not be validated.\n   ** Warning ** ProcessScheduleInput: Schedule:Day:Interval=\"RES MV_U 1 SCHEDULE ALLDAY12\", Blank Schedule Type Limits Name input -- will not be validated.\n   ** Warning ** ProcessScheduleInput: Schedule:Day:Interval=\"RES MV_U 1 SCHEDULE ALLDAY2\", Blank Schedule Type Limits Name input -- will not be validated.\n   ** Warning ** ProcessScheduleInput: Schedule:Day:Interval=\"RES MV_U 1 SCHEDULE ALLDAY3\", Blank Schedule Type Limits Name input -- will not be validated.\n   ** Warning ** ProcessScheduleInput: Schedule:Day:Interval=\"RES MV_U 1 SCHEDULE ALLDAY4\", Blank Schedule Type Limits Name input -- will not be validated.\n   ** Warning ** ProcessScheduleInput: Schedule:Day:Interval=\"RES MV_U 1 SCHEDULE ALLDAY5\", Blank Schedule Type Limits Name input -- will not be validated.\n   ** Warning ** ProcessScheduleInput: Schedule:Day:Interval=\"RES MV_U 1 SCHEDULE ALLDAY6\", Blank Schedule Type Limits Name input -- will not be validated.\n   ** Warning ** ProcessScheduleInput: Schedule:Day:Interval=\"RES MV_U 1 SCHEDULE ALLDAY7\", Blank Schedule Type Limits Name input -- will not be validated.\n   ** Warning ** ProcessScheduleInput: Schedule:Day:Interval=\"RES MV_U 1 SCHEDULE ALLDAY8\", Blank Schedule Type Limits Name input -- will not be validated.\n   ** Warning ** ProcessScheduleInput: Schedule:Day:Interval=\"RES MV_U 1 SCHEDULE ALLDAY9\", Blank Schedule Type Limits Name input -- will not be validated.\n   ** Warning ** ProcessScheduleInput: Schedule:Day:Interval=\"RES NV_U 1 AVAILABILITY SCHEDULE ALLDAY1 ON\", Blank Schedule Type Limits Name input -- will not be validated.\n   ** Warning ** ProcessScheduleInput: Schedule:Day:Interval=\"RES NV_U 1 AVAILABILITY SCHEDULE ALLDAY1 ON 1\", Blank Schedule Type Limits Name input -- will not be validated.\n   ** Warning ** ProcessScheduleInput: Schedule:Day:Interval=\"RES NV_U 1 AVAILABILITY SCHEDULE ALLDAY1 ON 10\", Blank Schedule Type Limits Name input -- will not be validated.\n   ** Warning ** ProcessScheduleInput: Schedule:Day:Interval=\"RES NV_U 1 AVAILABILITY SCHEDULE ALLDAY1 ON 11\", Blank Schedule Type Limits Name input -- will not be validated.\n   ** Warning ** ProcessScheduleInput: Schedule:Day:Interval=\"RES NV_U 1 AVAILABILITY SCHEDULE ALLDAY1 ON 2\", Blank Schedule Type Limits Name input -- will not be validated.\n   ** Warning ** ProcessScheduleInput: Schedule:Day:Interval=\"RES NV_U 1 AVAILABILITY SCHEDULE ALLDAY1 ON 3\", Blank Schedule Type Limits Name input -- will not be validated.\n   ** Warning ** ProcessScheduleInput: Schedule:Day:Interval=\"RES NV_U 1 AVAILABILITY SCHEDULE ALLDAY1 ON 4\", Blank Schedule Type Limits Name input -- will not be validated.\n   ** Warning ** ProcessScheduleInput: Schedule:Day:Interval=\"RES NV_U 1 AVAILABILITY SCHEDULE ALLDAY1 ON 5\", Blank Schedule Type Limits Name input -- will not be validated.\n   ** Warning ** ProcessScheduleInput: Schedule:Day:Interval=\"RES NV_U 1 AVAILABILITY SCHEDULE ALLDAY1 ON 6\", Blank Schedule Type Limits Name input -- will not be validated.\n   ** Warning ** ProcessScheduleInput: Schedule:Day:Interval=\"RES NV_U 1 AVAILABILITY SCHEDULE ALLDAY1 ON 7\", Blank Schedule Type Limits Name input -- will not be validated.\n   ** Warning ** ProcessScheduleInput: Schedule:Day:Interval=\"RES NV_U 1 AVAILABILITY SCHEDULE ALLDAY1 ON 8\", Blank Schedule Type Limits Name input -- will not be validated.\n   ** Warning ** ProcessScheduleInput: Schedule:Day:Interval=\"RES NV_U 1 AVAILABILITY SCHEDULE ALLDAY1 ON 9\", Blank Schedule Type Limits Name input -- will not be validated.\n   ** Warning ** ProcessScheduleInput: Schedule:Day:Interval=\"RES NV_U 1 TEMP SCHEDULE ALLDAY1\", Blank Schedule Type Limits Name input -- will not be validated.\n   ** Warning ** ProcessScheduleInput: Schedule:Day:Interval=\"RES NV_U 1 TEMP SCHEDULE ALLDAY10\", Blank Schedule Type Limits Name input -- will not be validated.\n   ** Warning ** ProcessScheduleInput: Schedule:Day:Interval=\"RES NV_U 1 TEMP SCHEDULE ALLDAY11\", Blank Schedule Type Limits Name input -- will not be validated.\n   ** Warning ** ProcessScheduleInput: Schedule:Day:Interval=\"RES NV_U 1 TEMP SCHEDULE ALLDAY12\", Blank Schedule Type Limits Name input -- will not be validated.\n   ** Warning ** ProcessScheduleInput: Schedule:Day:Interval=\"RES NV_U 1 TEMP SCHEDULE ALLDAY2\", Blank Schedule Type Limits Name input -- will not be validated.\n   ** Warning ** ProcessScheduleInput: Schedule:Day:Interval=\"RES NV_U 1 TEMP SCHEDULE ALLDAY3\", Blank Schedule Type Limits Name input -- will not be validated.\n   ** Warning ** ProcessScheduleInput: Schedule:Day:Interval=\"RES NV_U 1 TEMP SCHEDULE ALLDAY4\", Blank Schedule Type Limits Name input -- will not be validated.\n   ** Warning ** ProcessScheduleInput: Schedule:Day:Interval=\"RES NV_U 1 TEMP SCHEDULE ALLDAY5\", Blank Schedule Type Limits Name input -- will not be validated.\n   ** Warning ** ProcessScheduleInput: Schedule:Day:Interval=\"RES NV_U 1 TEMP SCHEDULE ALLDAY6\", Blank Schedule Type Limits Name input -- will not be validated.\n   ** Warning ** ProcessScheduleInput: Schedule:Day:Interval=\"RES NV_U 1 TEMP SCHEDULE ALLDAY7\", Blank Schedule Type Limits Name input -- will not be validated.\n   ** Warning ** ProcessScheduleInput: Schedule:Day:Interval=\"RES NV_U 1 TEMP SCHEDULE ALLDAY8\", Blank Schedule Type Limits Name input -- will not be validated.\n   ** Warning ** ProcessScheduleInput: Schedule:Day:Interval=\"RES NV_U 1 TEMP SCHEDULE ALLDAY9\", Blank Schedule Type Limits Name input -- will not be validated.\n   ** Warning ** ProcessScheduleInput: Schedule:Day:Interval=\"RESIDENTIAL CEILING FAN SCHEDULE ALLDAY1\", Blank Schedule Type Limits Name input -- will not be validated.\n   ** Warning ** ProcessScheduleInput: Schedule:Day:Interval=\"RESIDENTIAL CEILING FAN SCHEDULE ALLDAY10\", Blank Schedule Type Limits Name input -- will not be validated.\n   ** Warning ** ProcessScheduleInput: Schedule:Day:Interval=\"RESIDENTIAL CEILING FAN SCHEDULE ALLDAY11\", Blank Schedule Type Limits Name input -- will not be validated.\n   ** Warning ** ProcessScheduleInput: Schedule:Day:Interval=\"RESIDENTIAL CEILING FAN SCHEDULE ALLDAY12\", Blank Schedule Type Limits Name input -- will not be validated.\n   ** Warning ** ProcessScheduleInput: Schedule:Day:Interval=\"RESIDENTIAL CEILING FAN SCHEDULE ALLDAY2\", Blank Schedule Type Limits Name input -- will not be validated.\n   ** Warning ** ProcessScheduleInput: Schedule:Day:Interval=\"RESIDENTIAL CEILING FAN SCHEDULE ALLDAY3\", Blank Schedule Type Limits Name input -- will not be validated.\n   ** Warning ** ProcessScheduleInput: Schedule:Day:Interval=\"RESIDENTIAL CEILING FAN SCHEDULE ALLDAY4\", Blank Schedule Type Limits Name input -- will not be validated.\n   ** Warning ** ProcessScheduleInput: Schedule:Day:Interval=\"RESIDENTIAL CEILING FAN SCHEDULE ALLDAY5\", Blank Schedule Type Limits Name input -- will not be validated.\n   ** Warning ** ProcessScheduleInput: Schedule:Day:Interval=\"RESIDENTIAL CEILING FAN SCHEDULE ALLDAY6\", Blank Schedule Type Limits Name input -- will not be validated.\n   ** Warning ** ProcessScheduleInput: Schedule:Day:Interval=\"RESIDENTIAL CEILING FAN SCHEDULE ALLDAY7\", Blank Schedule Type Limits Name input -- will not be validated.\n   ** Warning ** ProcessScheduleInput: Schedule:Day:Interval=\"RESIDENTIAL CEILING FAN SCHEDULE ALLDAY8\", Blank Schedule Type Limits Name input -- will not be validated.\n   ** Warning ** ProcessScheduleInput: Schedule:Day:Interval=\"RESIDENTIAL CEILING FAN SCHEDULE ALLDAY9\", Blank Schedule Type Limits Name input -- will not be validated.\n   ** Warning ** ProcessScheduleInput: Schedule:Day:Interval=\"RESIDENTIAL WINDOW SHADING SCHEDULE ALLDAY1\", Blank Schedule Type Limits Name input -- will not be validated.\n   ** Warning ** ProcessScheduleInput: Schedule:Day:Interval=\"RESIDENTIAL WINDOW SHADING SCHEDULE ALLDAY1 1\", Blank Schedule Type Limits Name input -- will not be validated.\n   ** Warning ** ProcessScheduleInput: Schedule:Day:Interval=\"RESIDENTIAL WINDOW SHADING SCHEDULE ALLDAY1 2\", Blank Schedule Type Limits Name input -- will not be validated.\n   ** Warning ** ProcessScheduleInput: Schedule:Day:Interval=\"RESIDENTIAL WINDOW SHADING SCHEDULE ALLDAY1 3\", Blank Schedule Type Limits Name input -- will not be validated.\n   ** Warning ** ProcessScheduleInput: Schedule:Day:Interval=\"RESIDENTIAL WINDOW SHADING SCHEDULE ALLDAY10\", Blank Schedule Type Limits Name input -- will not be validated.\n   ** Warning ** ProcessScheduleInput: Schedule:Day:Interval=\"RESIDENTIAL WINDOW SHADING SCHEDULE ALLDAY10 1\", Blank Schedule Type Limits Name input -- will not be validated.\n   ** Warning ** ProcessScheduleInput: Schedule:Day:Interval=\"RESIDENTIAL WINDOW SHADING SCHEDULE ALLDAY10 2\", Blank Schedule Type Limits Name input -- will not be validated.\n   ** Warning ** ProcessScheduleInput: Schedule:Day:Interval=\"RESIDENTIAL WINDOW SHADING SCHEDULE ALLDAY10 3\", Blank Schedule Type Limits Name input -- will not be validated.\n   ** Warning ** ProcessScheduleInput: Schedule:Day:Interval=\"RESIDENTIAL WINDOW SHADING SCHEDULE ALLDAY11\", Blank Schedule Type Limits Name input -- will not be validated.\n   ** Warning ** ProcessScheduleInput: Schedule:Day:Interval=\"RESIDENTIAL WINDOW SHADING SCHEDULE ALLDAY11 1\", Blank Schedule Type Limits Name input -- will not be validated.\n   ** Warning ** ProcessScheduleInput: Schedule:Day:Interval=\"RESIDENTIAL WINDOW SHADING SCHEDULE ALLDAY11 2\", Blank Schedule Type Limits Name input -- will not be validated.\n   ** Warning ** ProcessScheduleInput: Schedule:Day:Interval=\"RESIDENTIAL WINDOW SHADING SCHEDULE ALLDAY11 3\", Blank Schedule Type Limits Name input -- will not be validated.\n   ** Warning ** ProcessScheduleInput: Schedule:Day:Interval=\"RESIDENTIAL WINDOW SHADING SCHEDULE ALLDAY12\", Blank Schedule Type Limits Name input -- will not be validated.\n   ** Warning ** ProcessScheduleInput: Schedule:Day:Interval=\"RESIDENTIAL WINDOW SHADING SCHEDULE ALLDAY12 1\", Blank Schedule Type Limits Name input -- will not be validated.\n   ** Warning ** ProcessScheduleInput: Schedule:Day:Interval=\"RESIDENTIAL WINDOW SHADING SCHEDULE ALLDAY12 2\", Blank Schedule Type Limits Name input -- will not be validated.\n   ** Warning ** ProcessScheduleInput: Schedule:Day:Interval=\"RESIDENTIAL WINDOW SHADING SCHEDULE ALLDAY12 3\", Blank Schedule Type Limits Name input -- will not be validated.\n   ** Warning ** ProcessScheduleInput: Schedule:Day:Interval=\"RESIDENTIAL WINDOW SHADING SCHEDULE ALLDAY2\", Blank Schedule Type Limits Name input -- will not be validated.\n   ** Warning ** ProcessScheduleInput: Schedule:Day:Interval=\"RESIDENTIAL WINDOW SHADING SCHEDULE ALLDAY2 1\", Blank Schedule Type Limits Name input -- will not be validated.\n   ** Warning ** ProcessScheduleInput: Schedule:Day:Interval=\"RESIDENTIAL WINDOW SHADING SCHEDULE ALLDAY2 2\", Blank Schedule Type Limits Name input -- will not be validated.\n   ** Warning ** ProcessScheduleInput: Schedule:Day:Interval=\"RESIDENTIAL WINDOW SHADING SCHEDULE ALLDAY2 3\", Blank Schedule Type Limits Name input -- will not be validated.\n   ** Warning ** ProcessScheduleInput: Schedule:Day:Interval=\"RESIDENTIAL WINDOW SHADING SCHEDULE ALLDAY3\", Blank Schedule Type Limits Name input -- will not be validated.\n   ** Warning ** ProcessScheduleInput: Schedule:Day:Interval=\"RESIDENTIAL WINDOW SHADING SCHEDULE ALLDAY3 1\", Blank Schedule Type Limits Name input -- will not be validated.\n   ** Warning ** ProcessScheduleInput: Schedule:Day:Interval=\"RESIDENTIAL WINDOW SHADING SCHEDULE ALLDAY3 2\", Blank Schedule Type Limits Name input -- will not be validated.\n   ** Warning ** ProcessScheduleInput: Schedule:Day:Interval=\"RESIDENTIAL WINDOW SHADING SCHEDULE ALLDAY3 3\", Blank Schedule Type Limits Name input -- will not be validated.\n   ** Warning ** ProcessScheduleInput: Schedule:Day:Interval=\"RESIDENTIAL WINDOW SHADING SCHEDULE ALLDAY4\", Blank Schedule Type Limits Name input -- will not be validated.\n   ** Warning ** ProcessScheduleInput: Schedule:Day:Interval=\"RESIDENTIAL WINDOW SHADING SCHEDULE ALLDAY4 1\", Blank Schedule Type Limits Name input -- will not be validated.\n   ** Warning ** ProcessScheduleInput: Schedule:Day:Interval=\"RESIDENTIAL WINDOW SHADING SCHEDULE ALLDAY4 2\", Blank Schedule Type Limits Name input -- will not be validated.\n   ** Warning ** ProcessScheduleInput: Schedule:Day:Interval=\"RESIDENTIAL WINDOW SHADING SCHEDULE ALLDAY4 3\", Blank Schedule Type Limits Name input -- will not be validated.\n   ** Warning ** ProcessScheduleInput: Schedule:Day:Interval=\"RESIDENTIAL WINDOW SHADING SCHEDULE ALLDAY5\", Blank Schedule Type Limits Name input -- will not be validated.\n   ** Warning ** ProcessScheduleInput: Schedule:Day:Interval=\"RESIDENTIAL WINDOW SHADING SCHEDULE ALLDAY5 1\", Blank Schedule Type Limits Name input -- will not be validated.\n   ** Warning ** ProcessScheduleInput: Schedule:Day:Interval=\"RESIDENTIAL WINDOW SHADING SCHEDULE ALLDAY5 2\", Blank Schedule Type Limits Name input -- will not be validated.\n   ** Warning ** ProcessScheduleInput: Schedule:Day:Interval=\"RESIDENTIAL WINDOW SHADING SCHEDULE ALLDAY5 3\", Blank Schedule Type Limits Name input -- will not be validated.\n   ** Warning ** ProcessScheduleInput: Schedule:Day:Interval=\"RESIDENTIAL WINDOW SHADING SCHEDULE ALLDAY6\", Blank Schedule Type Limits Name input -- will not be validated.\n   ** Warning ** ProcessScheduleInput: Schedule:Day:Interval=\"RESIDENTIAL WINDOW SHADING SCHEDULE ALLDAY6 1\", Blank Schedule Type Limits Name input -- will not be validated.\n   ** Warning ** ProcessScheduleInput: Schedule:Day:Interval=\"RESIDENTIAL WINDOW SHADING SCHEDULE ALLDAY6 2\", Blank Schedule Type Limits Name input -- will not be validated.\n   ** Warning ** ProcessScheduleInput: Schedule:Day:Interval=\"RESIDENTIAL WINDOW SHADING SCHEDULE ALLDAY6 3\", Blank Schedule Type Limits Name input -- will not be validated.\n   ** Warning ** ProcessScheduleInput: Schedule:Day:Interval=\"RESIDENTIAL WINDOW SHADING SCHEDULE ALLDAY7\", Blank Schedule Type Limits Name input -- will not be validated.\n   ** Warning ** ProcessScheduleInput: Schedule:Day:Interval=\"RESIDENTIAL WINDOW SHADING SCHEDULE ALLDAY7 1\", Blank Schedule Type Limits Name input -- will not be validated.\n   ** Warning ** ProcessScheduleInput: Schedule:Day:Interval=\"RESIDENTIAL WINDOW SHADING SCHEDULE ALLDAY7 2\", Blank Schedule Type Limits Name input -- will not be validated.\n   ** Warning ** ProcessScheduleInput: Schedule:Day:Interval=\"RESIDENTIAL WINDOW SHADING SCHEDULE ALLDAY7 3\", Blank Schedule Type Limits Name input -- will not be validated.\n   ** Warning ** ProcessScheduleInput: Schedule:Day:Interval=\"RESIDENTIAL WINDOW SHADING SCHEDULE ALLDAY8\", Blank Schedule Type Limits Name input -- will not be validated.\n   ** Warning ** ProcessScheduleInput: Schedule:Day:Interval=\"RESIDENTIAL WINDOW SHADING SCHEDULE ALLDAY8 1\", Blank Schedule Type Limits Name input -- will not be validated.\n   ** Warning ** ProcessScheduleInput: Schedule:Day:Interval=\"RESIDENTIAL WINDOW SHADING SCHEDULE ALLDAY8 2\", Blank Schedule Type Limits Name input -- will not be validated.\n   ** Warning ** ProcessScheduleInput: Schedule:Day:Interval=\"RESIDENTIAL WINDOW SHADING SCHEDULE ALLDAY8 3\", Blank Schedule Type Limits Name input -- will not be validated.\n   ** Warning ** ProcessScheduleInput: Schedule:Day:Interval=\"RESIDENTIAL WINDOW SHADING SCHEDULE ALLDAY9\", Blank Schedule Type Limits Name input -- will not be validated.\n   ** Warning ** ProcessScheduleInput: Schedule:Day:Interval=\"RESIDENTIAL WINDOW SHADING SCHEDULE ALLDAY9 1\", Blank Schedule Type Limits Name input -- will not be validated.\n   ** Warning ** ProcessScheduleInput: Schedule:Day:Interval=\"RESIDENTIAL WINDOW SHADING SCHEDULE ALLDAY9 2\", Blank Schedule Type Limits Name input -- will not be validated.\n   ** Warning ** ProcessScheduleInput: Schedule:Day:Interval=\"RESIDENTIAL WINDOW SHADING SCHEDULE ALLDAY9 3\", Blank Schedule Type Limits Name input -- will not be validated.\n   ** Warning ** ProcessScheduleInput: Schedule:Day:Interval=\"SCHEDULE DAY 11\", Blank Schedule Type Limits Name input -- will not be validated.\n   ** Warning ** ProcessScheduleInput: Schedule:Day:Interval=\"SCHEDULE DAY 17\", Blank Schedule Type Limits Name input -- will not be validated.\n   ** Warning ** ProcessScheduleInput: Schedule:Day:Interval=\"SCHEDULE DAY 18\", Blank Schedule Type Limits Name input -- will not be validated.\n   ** Warning ** ProcessScheduleInput: Schedule:Day:Interval=\"SCHEDULE DAY 19\", Blank Schedule Type Limits Name input -- will not be validated.\n   ** Warning ** ProcessScheduleInput: Schedule:Day:Interval=\"SCHEDULE DAY 20\", Blank Schedule Type Limits Name input -- will not be validated.\n   ** Warning ** ProcessScheduleInput: Schedule:Day:Interval=\"SCHEDULE DAY 21\", Blank Schedule Type Limits Name input -- will not be validated.\n   ** Warning ** ProcessScheduleInput: Schedule:Day:Interval=\"SCHEDULE DAY 22\", Blank Schedule Type Limits Name input -- will not be validated.\n   ** Warning ** ProcessScheduleInput: Schedule:Day:Interval=\"SCHEDULE DAY 23\", Blank Schedule Type Limits Name input -- will not be validated.\n   ** Warning ** ProcessScheduleInput: Schedule:Day:Interval=\"SCHEDULE DAY 3\", Blank Schedule Type Limits Name input -- will not be validated.\n   ** Warning ** ProcessScheduleInput: Schedule:Day:Interval=\"SCHEDULE DAY 4\", Blank Schedule Type Limits Name input -- will not be validated.\n   ** Warning ** ProcessScheduleInput: Schedule:Day:Interval=\"SCHEDULE DAY 5\", Blank Schedule Type Limits Name input -- will not be validated.\n   ** Warning ** ProcessScheduleInput: Schedule:Day:Interval=\"SCHEDULE DAY 6\", Blank Schedule Type Limits Name input -- will not be validated.\n   ** Warning ** ProcessScheduleInput: Schedule:Year=\"RES INFIL_U 1 BATH EXHAUST SCHEDULE\", Blank Schedule Type Limits Name input -- will not be validated.\n   ** Warning ** ProcessScheduleInput: Schedule:Year=\"RES INFIL_U 1 CLOTHES DRYER EXHAUST SCHEDULE\", Blank Schedule Type Limits Name input -- will not be validated.\n   ** Warning ** ProcessScheduleInput: Schedule:Year=\"RES INFIL_U 1 RANGE HOOD SCHEDULE\", Blank Schedule Type Limits Name input -- will not be validated.\n   ** Warning ** ProcessScheduleInput: Schedule:Year=\"RES MV_U 1 ENERGY SCHEDULE\", Blank Schedule Type Limits Name input -- will not be validated.\n   ** Warning ** ProcessScheduleInput: Schedule:Year=\"RES MV_U 1 SCHEDULE\", Blank Schedule Type Limits Name input -- will not be validated.\n   ** Warning ** ProcessScheduleInput: Schedule:Year=\"RES NV_U 1 AVAIL SCHEDULE\", Blank Schedule Type Limits Name input -- will not be validated.\n   ** Warning ** ProcessScheduleInput: Schedule:Year=\"RES NV_U 1 TEMP SCHEDULE\", Blank Schedule Type Limits Name input -- will not be validated.\n   ** Warning ** ProcessScheduleInput: Schedule:Year=\"RESIDENTIAL CEILING FAN SCHEDULE\", Blank Schedule Type Limits Name input -- will not be validated.\n   ** Warning ** ProcessScheduleInput: Schedule:Year=\"RESIDENTIAL WINDOW SHADING SCHEDULE\", Blank Schedule Type Limits Name input -- will not be validated.\n   ** Warning ** ProcessScheduleInput: Schedule:Year=\"RESIDENTIAL WINDOW SHADING SCHEDULE 1\", Blank Schedule Type Limits Name input -- will not be validated.\n   ** Warning ** ProcessScheduleInput: Schedule:Year=\"RESIDENTIAL WINDOW SHADING SCHEDULE 2\", Blank Schedule Type Limits Name input -- will not be validated.\n   ** Warning ** ProcessScheduleInput: Schedule:Year=\"RESIDENTIAL WINDOW SHADING SCHEDULE 3\", Blank Schedule Type Limits Name input -- will not be validated.\n   ** Warning ** ProcessScheduleInput: Schedule:Constant=\"RESIDENTIAL CLOTHES WASHER TEMPERATURE SCHEDULE\", Blank Schedule Type Limits Name input -- will not be validated.\n   ** Warning ** ProcessScheduleInput: Schedule:Constant=\"RESIDENTIAL DISHWASHER TEMPERATURE SCHEDULE\", Blank Schedule Type Limits Name input -- will not be validated.\n   ** Warning ** GetSurfaceData: WindowProperty:ShadingControl: \"WINDOWSHADINGCONTROL\" is not referenced by any window.\n   ** Warning ** GetSurfaceData: WindowProperty:ShadingControl: \"WINDOWSHADINGCONTROL 1\" is not referenced by any window.\n   ** Warning ** GetSurfaceData: WindowProperty:ShadingControl: \"WINDOWSHADINGCONTROL 2\" is not referenced by any window.\n   ** Warning ** GetSurfaceData: WindowProperty:ShadingControl: \"WINDOWSHADINGCONTROL 3\" is not referenced by any window.\n   ************* Note that the following warning(s) may/will occur if you have not enclosed your zone completely.\n   ** Warning ** Entered Zone Volumes differ from calculated zone volume(s).\n   **   ~~~   ** ...use Output:Diagnostics,DisplayExtraWarnings; to show more details on individual zones.\n   ** Warning ** CheckUsedConstructions: There are 5 nominally unused constructions in input.\n   **   ~~~   ** For explicit details on each unused construction, use Output:Diagnostics,DisplayExtraWarnings;\n   ** Warning ** Surfaces in Zone=\"UNFINISHED ATTIC ZONE\" do not define an enclosure.\n   **   ~~~   ** Number of surfaces <= 3, view factors are set to force reciprocity but may not fulfill completeness.\n   **   ~~~   ** Reciprocity means that radiant exchange between two surfaces will match and not lead to an energy loss.\n   **   ~~~   ** Completeness means that all of the view factors between a surface and the other surfaces in a zone add up to unity.\n   **   ~~~   ** So, when there are three or less surfaces in a zone, EnergyPlus will make sure there are no losses of energy but\n   **   ~~~   ** it will not exchange the full amount of radiation with the rest of the zone as it would if there was a completed enclosure.\n   ** Warning ** The Standard Ratings is calculated for Coil:Cooling:DX:SingleSpeed = RESIDENTIAL CENTRAL AC COOLING COIL but not at the AHRI test condition due to curve out of bound.\n   **   ~~~   **  Review the Standard Ratings calculations in the Engineering Reference for this coil type. Also, use Output:Diagnostics, DisplayExtraWarnings for further guidance.\n   ** Warning ** Check input. Pump nominal power or motor efficiency is set to 0, for pump=PUMP VARIABLE SPEED 1\n   ** Warning ** Output:Meter: invalid Name=\"DISTRICTCOOLING:FACILITY\" - not found.\n   ** Warning ** Output:Meter: invalid Name=\"DISTRICTHEATING:FACILITY\" - not found.\n   ** Warning ** Output:Meter:MeterFileOnly requested for \"Electricity:Facility\" (TimeStep), already on \"Output:Meter\". Will report to both eplusout.eso and eplusout.mtr\n   ************* Testing Individual Branch Integrity\n   ************* All Branches passed integrity testing\n   ************* Testing Individual Supply Air Path Integrity\n   ************* All Supply Air Paths passed integrity testing\n   ************* Testing Individual Return Air Path Integrity\n   ************* All Return Air Paths passed integrity testing\n   ************* No node connection errors were found.\n   ************* Beginning Simulation\n   ** Warning ** CalcDoe2DXCoil: Coil:Cooling:DX:SingleSpeed=\"RESIDENTIAL CENTRAL AC COOLING COIL\" - Air volume flow rate per watt of rated total cooling capacity is out of range at 6.859E-005 m3/s/W.\n   **   ~~~   **  Environment=RUN PERIOD, at Simulation time=05/08 16:00 - 17:00\n   **   ~~~   ** Expected range for VolumeFlowPerRatedTotalCapacity=[2.684E-005--6.713E-005]\n   **   ~~~   ** Possible causes include inconsistent air flow rates in system components,\n   **   ~~~   ** or variable air volume [VAV] system using incorrect coil type.\n   ************* Simulation Error Summary *************\n   ** Warning ** The following Report Variables were requested but not generated\n   **   ~~~   ** because IDF did not contain these elements or misspelled variable name -- check .rdd file\n   ************* Key=residential furnace gas heating coil, VarName=HEATING COIL TOTAL HEATING ENERGY, Frequency=Annual\n   ************* Key=residential furnace gas heating coil, VarName=HEATING COIL HEATING ENERGY, Frequency=Annual\n   ************* Key=residential furnace gas heating coil, VarName=HEATING COIL TOTAL HEATING ENERGY, Frequency=Annual\n   ************* Key=residential furnace gas heating coil, VarName=BOILER HEATING ENERGY, Frequency=Annual\n   ************* Key=residential furnace gas heating coil, VarName=BOILER HEATING ENERGY, Frequency=Annual\n   ************* Key=residential furnace gas heating coil, VarName=BASEBOARD TOTAL HEATING ENERGY, Frequency=Annual\n   ************* Key=residential furnace gas heating coil, VarName=BASEBOARD TOTAL HEATING ENERGY, Frequency=Annual\n   ************* Key=residential furnace gas heating coil, VarName=HEATING COIL HEATING ENERGY, Frequency=Annual\n   ************* There are 2 unused schedules in input.\n   ************* There are 42 unused week schedules in input.\n   ************* There are 26 unused day schedules in input.\n   ************* Use Output:Diagnostics,DisplayUnusedSchedules; to see them.\n   *************\n   ************* ===== Recurring Error Summary =====\n   ************* The following recurring error messages occurred.\n   *************\n   *************  ** Warning ** CalcDoe2DXCoil: Coil:Cooling:DX:SingleSpeed=\"RESIDENTIAL CENTRAL AC COOLING COIL\" - Air volume flow rate per watt of rated total cooling capacity is out of range error continues...\n   *************  **   ~~~   **   This error occurred 64818 total times;\n   *************  **   ~~~   **   during Warmup 0 times;\n   *************  **   ~~~   **   during Sizing 0 times.\n   *************  **   ~~~   **   Max=6.912750E-005  Min=6.713027E-005\n   *************\n   *************\n   ************* ===== Final Error Summary =====\n   ************* The following error categories occurred.  Consider correcting or noting.\n   ************* Nominally Unused Constructions\n   ************* ..The nominally unused constructions warning is provided to alert you to potential conditions that can cause\n   ************* ..extra time during simulation. Each construction is calculated by the algorithm indicated in the HeatBalanceAlgorithm\n   ************* ..object. You may remove the constructions indicated (when you use the DisplayExtraWarnings option).\n   *************\n   ************* EnergyPlus Warmup Error Summary. During Warmup: 0 Warning; 0 Severe Errors.\n   ************* EnergyPlus Sizing Error Summary. During Sizing: 0 Warning; 0 Severe Errors.\n   ************* EnergyPlus Completed Successfully-- 65003 Warning; 0 Severe Errors; Elapsed Time=00hr 00min 18.77sec\n",
   "hash" : "976ABC05",
   "measure_paths" : [ "../../measures" ],
   "seed_file" : "../../seeds/EmptySeedModel.osm",
   "started_at" : "20170801T162326Z",
   "steps" : [
      {
         "arguments" : {
            "calc_type" : "HERS Reference Home",
            "hpxml_file_path" : "C:/Users/shorowit/Documents/GitHub/OpenStudio-ERI/workflow/sample_files/valid.xml",
            "hpxml_output_file_path" : "C:/Users/shorowit/Documents/GitHub/OpenStudio-ERI/workflow/results/HERSReferenceHome.xml",
            "measures_dir" : "C:/Users/shorowit/Documents/GitHub/OpenStudio-ERI/resources/measures",
            "weather_file_path" : "C:/Users/shorowit/Documents/GitHub/OpenStudio-ERI/workflow/sample_files/denver.epw"
         },
         "measure_dir_name" : "301EnergyRatingIndexRuleset",
         "name" : "301EnergyRatingIndexRuleset",
         "result" : {
            "completed_at" : "20170801T162352Z",
            "measure_class_name" : "EnergyRatingIndex301",
            "measure_display_name" : "Generate Energy Rating Index Model",
            "measure_name" : "energy_rating_index_301",
            "measure_taxonomy" : "Whole Building.Space Types",
            "measure_type" : "ModelMeasure",
            "measure_uid" : "b1543b30-9465-45ff-ba04-1d1f85e763bc",
            "measure_version_id" : "9868ca00-c2c7-4a6d-bbd3-05907170a8a2",
            "measure_version_modified" : "20170731T152012Z",
            "measure_xml_checksum" : "D8922A73",
            "started_at" : "20170801T162328Z",
            "stderr" : "",
            "stdout" : "[openstudio.measure.OSRunner] <1> Cannot find current Workflow Step\n[openstudio.model.YearDescription] <1> 'UseWeatherFile' is not yet a supported option for YearDescription\n[openstudio.model.YearDescription] <1> 'UseWeatherFile' is not yet a supported option for YearDescription\n[openstudio.model.YearDescription] <1> 'UseWeatherFile' is not yet a supported option for YearDescription\n[openstudio.model.YearDescription] <1> 'UseWeatherFile' is not yet a supported option for YearDescription\n[openstudio.measure.OSRunner] <1> Cannot find current Workflow Step\n[openstudio.measure.OSRunner] <1> Cannot find current Workflow Step\n[openstudio.measure.OSRunner] <1> Cannot find current Workflow Step\n[openstudio.measure.OSRunner] <1> Cannot find current Workflow Step\n[openstudio.measure.OSRunner] <1> Cannot find current Workflow Step\n[openstudio.measure.OSRunner] <1> Cannot find current Workflow Step\n[openstudio.measure.OSRunner] <1> Cannot find current Workflow Step\n[openstudio.measure.OSRunner] <1> Cannot find current Workflow Step\n[openstudio.measure.OSRunner] <1> Cannot find current Workflow Step\n[openstudio.measure.OSRunner] <1> Cannot find current Workflow Step\n[openstudio.measure.OSRunner] <1> Cannot find current Workflow Step\n[openstudio.measure.OSRunner] <1> Cannot find current Workflow Step\n[openstudio.measure.OSRunner] <1> Cannot find current Workflow Step\n[openstudio.measure.OSRunner] <1> Cannot find current Workflow Step\n[openstudio.measure.OSRunner] <1> Cannot find current Workflow Step\n[openstudio.measure.OSRunner] <1> Cannot find current Workflow Step\n[openstudio.measure.OSRunner] <1> Cannot find current Workflow Step\n[openstudio.measure.OSRunner] <1> Cannot find current Workflow Step\n[openstudio.measure.OSRunner] <1> Cannot find current Workflow Step\n[openstudio.measure.OSRunner] <1> Cannot find current Workflow Step\n[openstudio.measure.OSRunner] <1> Cannot find current Workflow Step\n[openstudio.measure.OSRunner] <1> Cannot find current Workflow Step\n[openstudio.measure.OSRunner] <1> Cannot find current Workflow Step\n[openstudio.measure.OSRunner] <1> Cannot find current Workflow Step\n[openstudio.measure.OSRunner] <1> Cannot find current Workflow Step\n[openstudio.model.YearDescription] <1> 'UseWeatherFile' is not yet a supported option for YearDescription\n[openstudio.model.YearDescription] <1> 'UseWeatherFile' is not yet a supported option for YearDescription\n[openstudio.measure.OSRunner] <1> Cannot find current Workflow Step\n[openstudio.model.YearDescription] <1> 'UseWeatherFile' is not yet a supported option for YearDescription\n[openstudio.model.YearDescription] <1> 'UseWeatherFile' is not yet a supported option for YearDescription\n[openstudio.measure.OSRunner] <1> Cannot find current Workflow Step\n[openstudio.model.YearDescription] <1> 'UseWeatherFile' is not yet a supported option for YearDescription\n[openstudio.model.YearDescription] <1> 'UseWeatherFile' is not yet a supported option for YearDescription\n[openstudio.measure.OSRunner] <1> Cannot find current Workflow Step\n[openstudio.model.YearDescription] <1> 'UseWeatherFile' is not yet a supported option for YearDescription\n[openstudio.model.YearDescription] <1> 'UseWeatherFile' is not yet a supported option for YearDescription\n[openstudio.measure.OSRunner] <1> Cannot find current Workflow Step\n[openstudio.measure.OSRunner] <1> Cannot find current Workflow Step\n[openstudio.measure.OSRunner] <1> Cannot find current Workflow Step\n[openstudio.measure.OSRunner] <1> Cannot find current Workflow Step\n[openstudio.measure.OSRunner] <1> Cannot find current Workflow Step\n[openstudio.measure.OSRunner] <1> Cannot find current Workflow Step\n[openstudio.model.YearDescription] <1> 'UseWeatherFile' is not yet a supported option for YearDescription\n[openstudio.model.YearDescription] <1> 'UseWeatherFile' is not yet a supported option for YearDescription\n[openstudio.measure.OSRunner] <1> Cannot find current Workflow Step\n[openstudio.model.YearDescription] <1> 'UseWeatherFile' is not yet a supported option for YearDescription\n[openstudio.model.YearDescription] <1> 'UseWeatherFile' is not yet a supported option for YearDescription\n[openstudio.measure.OSRunner] <1> Cannot find current Workflow Step\n[openstudio.measure.OSRunner] <1> Cannot find current Workflow Step\n[openstudio.measure.OSRunner] <1> Cannot find current Workflow Step\n[openstudio.measure.OSRunner] <1> Cannot find current Workflow Step\n[openstudio.measure.OSRunner] <1> Cannot find current Workflow Step\n[openstudio.measure.OSRunner] <1> Cannot find current Workflow Step\n[openstudio.measure.OSRunner] <1> Cannot find current Workflow Step\n[openstudio.measure.OSRunner] <1> Cannot find current Workflow Step\n[openstudio.model.YearDescription] <1> 'UseWeatherFile' is not yet a supported option for YearDescription\n[openstudio.model.YearDescription] <1> 'UseWeatherFile' is not yet a supported option for YearDescription\n[openstudio.measure.OSRunner] <1> Cannot find current Workflow Step\n[openstudio.model.YearDescription] <1> 'UseWeatherFile' is not yet a supported option for YearDescription\n[openstudio.model.YearDescription] <1> 'UseWeatherFile' is not yet a supported option for YearDescription\n[openstudio.model.YearDescription] <1> 'UseWeatherFile' is not yet a supported option for YearDescription\n",
            "step_errors" : [],
            "step_files" : [],
            "step_final_condition" : "The building has been assigned plug loads totaling 7059 kWhs annual energy consumption across 1 units.",
            "step_info" : [
               "Setting weather file.",
               "Setting site data.",
               "Setting Building America climate zone to Cold.",
               "Setting mains water temperature profile with an average temperature of 57.6 F.",
               "No daylight saving time set.",
               "Wrote file: C:/Users/shorowit/Documents/GitHub/OpenStudio-ERI/workflow/results/HERSReferenceHome.xml",
               "Material 'UAAdditionalCeilingIns' was created.",
               "Material 'UATrussandIns' was created.",
               "Construction 'FinInsUnfinUAFloor' was created with 2 materials (UATrussandIns, UAAdditionalCeilingIns).",
               "Surface 'Attic_ID1' has been assigned construction 'FinInsUnfinUAFloor'.",
               "Construction 'RevFinInsUnfinUAFloor' was created with 2 materials (UAAdditionalCeilingIns, UATrussandIns).",
               "Surface 'Attic_ID1 Reversed' has been assigned construction 'RevFinInsUnfinUAFloor'.",
               "Material 'RoofIns' was created.",
               "Construction 'FinInsExtRoof' was created with 1 material (RoofIns).",
               "Surface 'roof-2' has been assigned construction 'FinInsExtRoof'.",
               "Material 'ResRoofSheathing' was created.",
               "Construction 'Construction 1' was created with 1 material (ResRoofSheathing).",
               "Surface 'roof-1' has been assigned construction 'Construction 1'.",
               "Construction 'FinInsExtRoof 1' was created with 2 materials (ResRoofSheathing, RoofIns).",
               "Surface 'roof-2' has been assigned construction 'FinInsExtRoof 1'.",
               "Removed construction 'FinInsExtRoof' because it was orphaned.",
               "Material 'ResRoofMaterial' was created.",
               "Construction 'Construction 2' was created with 2 materials (ResRoofMaterial, ResRoofSheathing).",
               "Surface 'roof-1' has been assigned construction 'Construction 2'.",
               "Removed construction 'Construction 1' because it was orphaned.",
               "Construction 'FinInsExtRoof 2' was created with 3 materials (ResRoofMaterial, ResRoofSheathing, RoofIns).",
               "Surface 'roof-2' has been assigned construction 'FinInsExtRoof 2'.",
               "Removed construction 'FinInsExtRoof 1' because it was orphaned.",
               "Material 'ResCeilingMass1' was created.",
               "Construction 'RevFinInsUnfinUAFloor 1' was created with 3 materials (ResCeilingMass1, UAAdditionalCeilingIns, UATrussandIns).",
               "Surface 'Attic_ID1 Reversed' has been assigned construction 'RevFinInsUnfinUAFloor 1'.",
               "Construction 'FinInsUnfinUAFloor 1' was created with 3 materials (UATrussandIns, UAAdditionalCeilingIns, ResCeilingMass1).",
               "Surface 'Attic_ID1' has been assigned construction 'FinInsUnfinUAFloor 1'.",
               "Removed construction 'FinInsUnfinUAFloor' because it was orphaned.",
               "Removed construction 'RevFinInsUnfinUAFloor' because it was orphaned.",
               "Material 'Concrete-8in' was created.",
               "Material 'Soil-12in' was created.",
               "Material 'FBaseWall-FicR' was created.",
               "Construction 'GrndInsFinWall' was created with 3 materials (FBaseWall-FicR, Soil-12in, Concrete-8in).",
               "Surface 'fndwall-1' has been assigned construction 'GrndInsFinWall'.",
               "Material 'Concrete-4in' was created.",
               "Material 'FBaseFloor-FicR' was created.",
               "Construction 'GrndUninsFinBFloor' was created with 3 materials (FBaseFloor-FicR, Soil-12in, Concrete-4in).",
               "Surface 'fndslab-1' has been assigned construction 'GrndUninsFinBFloor'.",
               "Material 'ResFloorCovering' was created.",
               "Construction 'Construction 1' was created with 1 material (ResFloorCovering).",
               "Surface 'Floor_ID1 Reversed' has been assigned construction 'Construction 1'.",
               "Surface 'Floor_ID1' has been assigned construction 'Construction 1'.",
               "Material 'ResFloorSheathing' was created.",
               "Construction 'Construction 3' was created with 2 materials (ResFloorSheathing, ResFloorCovering).",
               "Surface 'Floor_ID1 Reversed' has been assigned construction 'Construction 3'.",
               "Construction 'RevConstruction 3' was created with 2 materials (ResFloorCovering, ResFloorSheathing).",
               "Surface 'Floor_ID1' has been assigned construction 'RevConstruction 3'.",
               "Removed construction 'Construction 1' because it was orphaned.",
               "Material 'ResFloorMass' was created.",
               "Construction 'Construction 4' was created with 3 materials (ResFloorSheathing, ResFloorMass, ResFloorCovering).",
               "Surface 'Floor_ID1 Reversed' has been assigned construction 'Construction 4'.",
               "Construction 'RevConstruction 4' was created with 3 materials (ResFloorCovering, ResFloorMass, ResFloorSheathing).",
               "Surface 'Floor_ID1' has been assigned construction 'RevConstruction 4'.",
               "Removed construction 'Construction 3' because it was orphaned.",
               "Removed construction 'RevConstruction 3' because it was orphaned.",
               "Material 'Layer1' was created.",
               "Construction 'ExtInsFinWall' was created with 1 material (Layer1).",
               "Surface 'agwall-1' has been assigned construction 'ExtInsFinWall'.",
               "Construction 'ExtInsFinWall 1' was created with 1 material (Layer1).",
               "Surface 'agwall-3' has been assigned construction 'ExtInsFinWall 1'.",
               "Material 'IntWallIns' was created.",
               "Construction 'UnfinInsFinWall' was created with 1 material (IntWallIns).",
               "Surface 'agwall-2' has been assigned construction 'UnfinInsFinWall'.",
               "Surface 'agwall-2 Reversed' has been assigned construction 'UnfinInsFinWall'.",
               "Material 'ResExtWallSheathing' was created.",
               "Construction 'ExtInsFinWall 2' was created with 2 materials (ResExtWallSheathing, Layer1).",
               "Surface 'agwall-1' has been assigned construction 'ExtInsFinWall 2'.",
               "Removed construction 'ExtInsFinWall' because it was orphaned.",
               "Construction 'ExtInsFinWall 3' was created with 2 materials (ResExtWallSheathing, Layer1).",
               "Surface 'agwall-3' has been assigned construction 'ExtInsFinWall 3'.",
               "Removed construction 'ExtInsFinWall 1' because it was orphaned.",
               "Material 'ResExtFinish' was created.",
               "Construction 'ExtInsFinWall 4' was created with 3 materials (ResExtFinish, ResExtWallSheathing, Layer1).",
               "Surface 'agwall-1' has been assigned construction 'ExtInsFinWall 4'.",
               "Removed construction 'ExtInsFinWall 2' because it was orphaned.",
               "Construction 'ExtInsFinWall 5' was created with 3 materials (ResExtFinish, ResExtWallSheathing, Layer1).",
               "Surface 'agwall-3' has been assigned construction 'ExtInsFinWall 5'.",
               "Removed construction 'ExtInsFinWall 3' because it was orphaned.",
               "Material 'ResExtWallMass1' was created.",
               "Construction 'ExtInsFinWall 6' was created with 4 materials (ResExtFinish, ResExtWallSheathing, Layer1, ResExtWallMass1).",
               "Surface 'agwall-1' has been assigned construction 'ExtInsFinWall 6'.",
               "Removed construction 'ExtInsFinWall 4' because it was orphaned.",
               "Construction 'ExtInsFinWall 7' was created with 4 materials (ResExtFinish, ResExtWallSheathing, Layer1, ResExtWallMass1).",
               "Surface 'agwall-3' has been assigned construction 'ExtInsFinWall 7'.",
               "Removed construction 'ExtInsFinWall 5' because it was orphaned.",
               "Material 'ResExtWallMassOtherSide1' was created.",
               "Construction 'Construction 1' was created with 2 materials (ResExtWallMassOtherSide1, ResExtWallMass1).",
               "Surface 'surface Window_north' has been assigned construction 'Construction 1'.",
               "Surface 'surface Window_south' has been assigned construction 'Construction 1'.",
               "Surface 'surface Window_east' has been assigned construction 'Construction 1'.",
               "Surface 'surface Window_west' has been assigned construction 'Construction 1'.",
               "Surface 'surface Door' has been assigned construction 'Construction 1'.",
               "Added internal mass object 'living space Partition' to space 'living space'",
               "Added internal mass object 'finished basement space Partition' to space 'finished basement space'",
               "Material 'IntMassStudAndAirWall' was created.",
               "Construction 'FinUninsFinWall' was created with 3 materials (ResExtWallMassOtherSide1, IntMassStudAndAirWall, ResExtWallMass1).",
               "InternalMassDefinition 'living space Partition' has been assigned construction 'FinUninsFinWall'.",
               "InternalMassDefinition 'finished basement space Partition' has been assigned construction 'FinUninsFinWall'.",
               "Material 'GlazingMaterial' was created.",
               "Construction 'WindowConstruction' was created with 1 material (GlazingMaterial).",
               "SubSurface 'Window_north' has been assigned construction 'WindowConstruction'.",
               "Construction and interior shades added to 1 window(s).",
               "Construction 'WindowConstruction 1' was created with 1 material (GlazingMaterial).",
               "SubSurface 'Window_south' has been assigned construction 'WindowConstruction 1'.",
               "Construction and interior shades added to 1 window(s).",
               "Construction 'WindowConstruction 2' was created with 1 material (GlazingMaterial).",
               "SubSurface 'Window_east' has been assigned construction 'WindowConstruction 2'.",
               "Construction and interior shades added to 1 window(s).",
               "Construction 'WindowConstruction 3' was created with 1 material (GlazingMaterial).",
               "SubSurface 'Window_west' has been assigned construction 'WindowConstruction 3'.",
               "Construction and interior shades added to 1 window(s).",
               "Material 'DoorMaterial' was created.",
               "Construction 'LivingDoors' was created with 1 material (DoorMaterial).",
               "SubSurface 'Door' has been assigned construction 'LivingDoors'.",
               "Assigned internal mass object 'residential furniture mass living space' to space 'living space'.",
               "Assigned internal mass object 'residential furniture mass finished basement space' to space 'finished basement space'.",
               "A new plant loop for DHW will be added to the model",
               "Added 'residential central ac supply fan' to 'residential central ac unitary system' of 'residential central ac central air system'",
               "Added 'residential central ac cooling coil' to 'residential central ac unitary system' of 'residential central ac central air system'",
               "Added 'residential central ac central air system' to 'living zone' of unit 1",
               "Added 'residential central ac central air system' to 'finished basement zone' of unit 1",
               "Removed 'residential central ac central air system' from living zone.",
               "Added 'residential furnace gas and central ac supply fan' to 'residential furnace gas and central ac unitary system' of 'residential furnace gas and central ac central air system'",
               "Added 'residential furnace gas heating coil' to 'residential furnace gas and central ac unitary system' of 'residential furnace gas and central ac central air system'",
               "Added 'residential central ac cooling coil' to 'residential furnace gas and central ac unitary system' of 'residential furnace gas and central ac central air system'",
               "Added 'residential furnace gas and central ac central air system' to 'living zone' of unit 1",
               "Added 'residential furnace gas and central ac central air system' to 'finished basement zone' of unit 1",
               "Found residential furnace gas in living zone.",
               "Added availability schedule to residential furnace gas heating coil.",
               "Found residential furnace gas in finished basement zone.",
               "Added availability schedule to residential furnace gas heating coil.",
               "Created new thermostat living zone temperature setpoint for living zone.",
               "Set a dummy cooling setpoint schedule for living zone temperature setpoint.",
               "Set the heating setpoint schedule for living zone temperature setpoint.",
               "Created new thermostat finished basement zone temperature setpoint for finished basement zone.",
               "Set a dummy cooling setpoint schedule for finished basement zone temperature setpoint.",
               "Set the heating setpoint schedule for finished basement zone temperature setpoint.",
               "Found residential central ac in living zone.",
               "Added availability schedule to residential central ac cooling coil.",
               "Found residential central ac in finished basement zone.",
               "Added availability schedule to residential central ac cooling coil.",
               "Found existing thermostat living zone temperature setpoint for living zone.",
               "Set the cooling setpoint schedule for living zone temperature setpoint.",
               "Set the cooling setpoint schedule for finished basement zone temperature setpoint.",
               "Plug loads with 3530 kWhs annual energy consumption has been assigned to space 'finished basement space'.",
               "Plug loads with 3530 kWhs annual energy consumption has been assigned to space 'living space'.",
               "Found residential central ac in living zone.",
               "Found residential furnace gas in living zone.",
               "Found residential furnace gas in living zone.",
               "Found residential furnace gas in finished basement zone.",
               "Found residential furnace gas in living zone.",
               "Found residential furnace gas in finished basement zone.",
               "Found residential central ac in living zone.",
               "Found residential furnace gas in living zone.",
               "Found residential central ac in finished basement zone.",
               "Found residential furnace gas in finished basement zone."
            ],
            "step_initial_condition" : "No water heater model currently exists",
            "step_result" : "Success",
            "step_values" : [
               {
                  "name" : "calc_type",
                  "value" : "HERS Reference Home"
               },
               {
                  "name" : "hpxml_file_path",
                  "value" : "C:/Users/shorowit/Documents/GitHub/OpenStudio-ERI/workflow/sample_files/valid.xml"
               },
               {
                  "name" : "weather_file_path",
                  "value" : "C:/Users/shorowit/Documents/GitHub/OpenStudio-ERI/workflow/sample_files/denver.epw"
               },
               {
                  "name" : "measures_dir",
                  "value" : "C:/Users/shorowit/Documents/GitHub/OpenStudio-ERI/resources/measures"
               },
               {
                  "name" : "hpxml_output_file_path",
                  "value" : "C:/Users/shorowit/Documents/GitHub/OpenStudio-ERI/workflow/results/HERSReferenceHome.xml"
               }
            ],
            "step_warnings" : [
               "Could not load nokogiri, no HPXML validation performed.",
               "Could not load nokogiri, no HPXML validation performed."
            ]
         }
      }
   ],
   "updated_at" : "20170801T162433Z"
}
