Program Version,EnergyPlus, Version 9.4.0-998c4b761e, YMD=2021.04.27 09:33,
   ** Warning ** Timestep: Requested number (1) is less than the suggested minimum of 4.
   **   ~~~   ** Please see entry for Timestep in Input/Output Reference for discussion of considerations.
   ************* Note that the following warning(s) may/will occur if you have not enclosed your zone completely.
   ** Warning ** Entered Zone Volumes differ from calculated zone volume(s).
   **   ~~~   ** ...use Output:Diagnostics,DisplayExtraWarnings; to show more details on individual zones.
   ** Warning ** CalculateZoneVolume: 2 zones are not fully enclosed. For more details use:  Output:Diagnostics,DisplayExtrawarnings; 
   ** Warning ** CheckUsedConstructions: There are 1 nominally unused constructions in input.
   **   ~~~   ** For explicit details on each unused construction, use Output:Diagnostics,DisplayExtraWarnings;
   ** Warning ** GetInputViewFactors: ComplexFenestrationProperty:SolarAbsorbedLayers="LIVING SPACE", not enough values.
   **   ~~~   ** ...Number of input values [105] is less than the required number=[729] Missing surface pairs will have a zero view factor.
   ** Warning ** GetInputViewFactors: Output:DaylightFactors="LIVING SPACE", not enough values.
   **   ~~~   ** ...Number of input values [105] is less than the required number=[729] Missing surface pairs will have a zero view factor.
   ** Warning ** The Standard Ratings is calculated for Coil:Cooling:DX:SingleSpeed = CENTRAL AC CLG COIL but not at the AHRI test condition due to curve out of bound.
   **   ~~~   **  Review the Standard Ratings calculations in the Engineering Reference for this coil type. Also, use Output:Diagnostics, DisplayExtraWarnings for further guidance.
   ** Warning ** Check input. Pump nominal power or motor efficiency is set to 0, for pump=PUMP VARIABLE SPEED 1
   ** Warning ** Output:Meter: invalid Key Name="ELECTRICITYPRODUCED:FACILITY" - not found.
   ** Warning ** Output:Meter: invalid Key Name="FUELOILNO2:FACILITY" - not found.
   ** Warning ** Output:Meter: invalid Key Name="PROPANE:FACILITY" - not found.
   ** Warning ** Output:Meter: invalid Key Name="OTHERFUEL1:FACILITY" - not found.
   ** Warning ** Output:Meter: invalid Key Name="OTHERFUEL2:FACILITY" - not found.
   ** Warning ** Output:Meter: invalid Key Name="COAL:FACILITY" - not found.
   ** Warning ** Output:Meter: invalid Key Name="GARAGE LIGHTING:INTERIORLIGHTS:ELECTRICITY" - not found.
   ** Warning ** Output:Meter: invalid Key Name="FREEZER:INTERIOREQUIPMENT:ELECTRICITY" - not found.
   ** Warning ** Output:Meter: invalid Key Name="CEILING FAN:INTERIOREQUIPMENT:ELECTRICITY" - not found.
   ** Warning ** Output:Meter: invalid Key Name="MISC ELECTRIC VEHICLE CHARGING:INTERIOREQUIPMENT:ELECTRICITY" - not found.
   ** Warning ** Output:Meter: invalid Key Name="MISC WELL PUMP:INTERIOREQUIPMENT:ELECTRICITY" - not found.
   ** Warning ** Output:Meter: invalid Key Name="MISC POOL HEATER:INTERIOREQUIPMENT:ELECTRICITY" - not found.
   ** Warning ** Output:Meter: invalid Key Name="MISC POOL PUMP:INTERIOREQUIPMENT:ELECTRICITY" - not found.
   ** Warning ** Output:Meter: invalid Key Name="MISC HOT TUB HEATER:INTERIOREQUIPMENT:ELECTRICITY" - not found.
   ** Warning ** Output:Meter: invalid Key Name="MISC HOT TUB PUMP:INTERIOREQUIPMENT:ELECTRICITY" - not found.
   ** Warning ** Output:Meter: invalid Key Name="PHOTOVOLTAIC:ELECTRICITYPRODUCED" - not found.
   ** Warning ** Output:Meter: invalid Key Name="POWERCONVERSION:ELECTRICITYPRODUCED" - not found.
   ** Warning ** Output:Meter: invalid Key Name="COGENERATION:ELECTRICITYPRODUCED" - not found.
   ** Warning ** Output:Meter: invalid Key Name="CLOTHES DRYER:INTERIOREQUIPMENT:NATURALGAS" - not found.
   ** Warning ** Output:Meter: invalid Key Name="COOKING RANGE:INTERIOREQUIPMENT:NATURALGAS" - not found.
   ** Warning ** Output:Meter: invalid Key Name="MISC POOL HEATER:INTERIOREQUIPMENT:NATURALGAS" - not found.
   ** Warning ** Output:Meter: invalid Key Name="MISC HOT TUB HEATER:INTERIOREQUIPMENT:NATURALGAS" - not found.
   ** Warning ** Output:Meter: invalid Key Name="MISC GRILL:INTERIOREQUIPMENT:NATURALGAS" - not found.
   ** Warning ** Output:Meter: invalid Key Name="MISC LIGHTING:INTERIOREQUIPMENT:NATURALGAS" - not found.
   ** Warning ** Output:Meter: invalid Key Name="MISC FIREPLACE:INTERIOREQUIPMENT:NATURALGAS" - not found.
   ** Warning ** Output:Meter: invalid Key Name="COGENERATION:NATURALGAS" - not found.
   ** Warning ** Output:Meter: invalid Key Name="CLOTHES DRYER:INTERIOREQUIPMENT:FUELOILNO2" - not found.
   ** Warning ** Output:Meter: invalid Key Name="COOKING RANGE:INTERIOREQUIPMENT:FUELOILNO2" - not found.
   ** Warning ** Output:Meter: invalid Key Name="MISC GRILL:INTERIOREQUIPMENT:FUELOILNO2" - not found.
   ** Warning ** Output:Meter: invalid Key Name="MISC LIGHTING:INTERIOREQUIPMENT:FUELOILNO2" - not found.
   ** Warning ** Output:Meter: invalid Key Name="MISC FIREPLACE:INTERIOREQUIPMENT:FUELOILNO2" - not found.
   ** Warning ** Output:Meter: invalid Key Name="CLOTHES DRYER:INTERIOREQUIPMENT:PROPANE" - not found.
   ** Warning ** Output:Meter: invalid Key Name="COOKING RANGE:INTERIOREQUIPMENT:PROPANE" - not found.
   ** Warning ** Output:Meter: invalid Key Name="MISC GRILL:INTERIOREQUIPMENT:PROPANE" - not found.
   ** Warning ** Output:Meter: invalid Key Name="MISC LIGHTING:INTERIOREQUIPMENT:PROPANE" - not found.
   ** Warning ** Output:Meter: invalid Key Name="MISC FIREPLACE:INTERIOREQUIPMENT:PROPANE" - not found.
   ** Warning ** Output:Meter: invalid Key Name="COGENERATION:PROPANE" - not found.
   ** Warning ** Output:Meter: invalid Key Name="CLOTHES DRYER:INTERIOREQUIPMENT:OTHERFUEL1" - not found.
   ** Warning ** Output:Meter: invalid Key Name="COOKING RANGE:INTERIOREQUIPMENT:OTHERFUEL1" - not found.
   ** Warning ** Output:Meter: invalid Key Name="MISC GRILL:INTERIOREQUIPMENT:OTHERFUEL1" - not found.
   ** Warning ** Output:Meter: invalid Key Name="MISC LIGHTING:INTERIOREQUIPMENT:OTHERFUEL1" - not found.
   ** Warning ** Output:Meter: invalid Key Name="MISC FIREPLACE:INTERIOREQUIPMENT:OTHERFUEL1" - not found.
   ** Warning ** Output:Meter: invalid Key Name="CLOTHES DRYER:INTERIOREQUIPMENT:OTHERFUEL2" - not found.
   ** Warning ** Output:Meter: invalid Key Name="COOKING RANGE:INTERIOREQUIPMENT:OTHERFUEL2" - not found.
   ** Warning ** Output:Meter: invalid Key Name="MISC GRILL:INTERIOREQUIPMENT:OTHERFUEL2" - not found.
   ** Warning ** Output:Meter: invalid Key Name="MISC LIGHTING:INTERIOREQUIPMENT:OTHERFUEL2" - not found.
   ** Warning ** Output:Meter: invalid Key Name="MISC FIREPLACE:INTERIOREQUIPMENT:OTHERFUEL2" - not found.
   ** Warning ** Output:Meter: invalid Key Name="CLOTHES DRYER:INTERIOREQUIPMENT:COAL" - not found.
   ** Warning ** Output:Meter: invalid Key Name="COOKING RANGE:INTERIOREQUIPMENT:COAL" - not found.
   ** Warning ** Output:Meter: invalid Key Name="MISC GRILL:INTERIOREQUIPMENT:COAL" - not found.
   ** Warning ** Output:Meter: invalid Key Name="MISC LIGHTING:INTERIOREQUIPMENT:COAL" - not found.
   ** Warning ** Output:Meter: invalid Key Name="MISC FIREPLACE:INTERIOREQUIPMENT:COAL" - not found.
   ** Warning ** Output:Meter: invalid Key Name="FUELOILNO2:FACILITY" - not found.
   ** Warning ** Output:Meter: invalid Key Name="PROPANE:FACILITY" - not found.
   ** Warning ** Output:Meter: invalid Key Name="OTHERFUEL1:FACILITY" - not found.
   ** Warning ** Output:Meter: invalid Key Name="OTHERFUEL2:FACILITY" - not found.
   ** Warning ** Output:Meter: invalid Key Name="COAL:FACILITY" - not found.
   ** Warning ** Output:Meter: invalid Key Name="GARAGE LIGHTING:INTERIORLIGHTS:ELECTRICITY" - not found.
   ** Warning ** Output:Meter: invalid Key Name="FREEZER:INTERIOREQUIPMENT:ELECTRICITY" - not found.
   ** Warning ** Output:Meter: invalid Key Name="CEILING FAN:INTERIOREQUIPMENT:ELECTRICITY" - not found.
   ** Warning ** Output:Meter: invalid Key Name="MISC ELECTRIC VEHICLE CHARGING:INTERIOREQUIPMENT:ELECTRICITY" - not found.
   ** Warning ** Output:Meter: invalid Key Name="MISC WELL PUMP:INTERIOREQUIPMENT:ELECTRICITY" - not found.
   ** Warning ** Output:Meter: invalid Key Name="MISC POOL HEATER:INTERIOREQUIPMENT:ELECTRICITY" - not found.
   ** Warning ** Output:Meter: invalid Key Name="MISC POOL PUMP:INTERIOREQUIPMENT:ELECTRICITY" - not found.
   ** Warning ** Output:Meter: invalid Key Name="MISC HOT TUB HEATER:INTERIOREQUIPMENT:ELECTRICITY" - not found.
   ** Warning ** Output:Meter: invalid Key Name="MISC HOT TUB PUMP:INTERIOREQUIPMENT:ELECTRICITY" - not found.
   ** Warning ** Output:Meter: invalid Key Name="PHOTOVOLTAIC:ELECTRICITYPRODUCED" - not found.
   ** Warning ** Output:Meter: invalid Key Name="POWERCONVERSION:ELECTRICITYPRODUCED" - not found.
   ** Warning ** Output:Meter: invalid Key Name="COGENERATION:ELECTRICITYPRODUCED" - not found.
   ** Warning ** Output:Meter: invalid Key Name="CLOTHES DRYER:INTERIOREQUIPMENT:NATURALGAS" - not found.
   ** Warning ** Output:Meter: invalid Key Name="COOKING RANGE:INTERIOREQUIPMENT:NATURALGAS" - not found.
   ** Warning ** Output:Meter: invalid Key Name="MISC POOL HEATER:INTERIOREQUIPMENT:NATURALGAS" - not found.
   ** Warning ** Output:Meter: invalid Key Name="MISC HOT TUB HEATER:INTERIOREQUIPMENT:NATURALGAS" - not found.
   ** Warning ** Output:Meter: invalid Key Name="MISC GRILL:INTERIOREQUIPMENT:NATURALGAS" - not found.
   ** Warning ** Output:Meter: invalid Key Name="MISC LIGHTING:INTERIOREQUIPMENT:NATURALGAS" - not found.
   ** Warning ** Output:Meter: invalid Key Name="MISC FIREPLACE:INTERIOREQUIPMENT:NATURALGAS" - not found.
   ** Warning ** Output:Meter: invalid Key Name="COGENERATION:NATURALGAS" - not found.
   ** Warning ** Output:Meter: invalid Key Name="CLOTHES DRYER:INTERIOREQUIPMENT:FUELOILNO2" - not found.
   ** Warning ** Output:Meter: invalid Key Name="COOKING RANGE:INTERIOREQUIPMENT:FUELOILNO2" - not found.
   ** Warning ** Output:Meter: invalid Key Name="MISC GRILL:INTERIOREQUIPMENT:FUELOILNO2" - not found.
   ** Warning ** Output:Meter: invalid Key Name="MISC LIGHTING:INTERIOREQUIPMENT:FUELOILNO2" - not found.
   ** Warning ** Output:Meter: invalid Key Name="MISC FIREPLACE:INTERIOREQUIPMENT:FUELOILNO2" - not found.
   ** Warning ** Output:Meter: invalid Key Name="CLOTHES DRYER:INTERIOREQUIPMENT:PROPANE" - not found.
   ** Warning ** Output:Meter: invalid Key Name="COOKING RANGE:INTERIOREQUIPMENT:PROPANE" - not found.
   ** Warning ** Output:Meter: invalid Key Name="MISC GRILL:INTERIOREQUIPMENT:PROPANE" - not found.
   ** Warning ** Output:Meter: invalid Key Name="MISC LIGHTING:INTERIOREQUIPMENT:PROPANE" - not found.
   ** Warning ** Output:Meter: invalid Key Name="MISC FIREPLACE:INTERIOREQUIPMENT:PROPANE" - not found.
   ** Warning ** Output:Meter: invalid Key Name="COGENERATION:PROPANE" - not found.
   ** Warning ** Output:Meter: invalid Key Name="CLOTHES DRYER:INTERIOREQUIPMENT:OTHERFUEL1" - not found.
   ** Warning ** Output:Meter: invalid Key Name="COOKING RANGE:INTERIOREQUIPMENT:OTHERFUEL1" - not found.
   ** Warning ** Output:Meter: invalid Key Name="MISC GRILL:INTERIOREQUIPMENT:OTHERFUEL1" - not found.
   ** Warning ** Output:Meter: invalid Key Name="MISC LIGHTING:INTERIOREQUIPMENT:OTHERFUEL1" - not found.
   ** Warning ** Output:Meter: invalid Key Name="MISC FIREPLACE:INTERIOREQUIPMENT:OTHERFUEL1" - not found.
   ** Warning ** Output:Meter: invalid Key Name="CLOTHES DRYER:INTERIOREQUIPMENT:OTHERFUEL2" - not found.
   ** Warning ** Output:Meter: invalid Key Name="COOKING RANGE:INTERIOREQUIPMENT:OTHERFUEL2" - not found.
   ** Warning ** Output:Meter: invalid Key Name="MISC GRILL:INTERIOREQUIPMENT:OTHERFUEL2" - not found.
   ** Warning ** Output:Meter: invalid Key Name="MISC LIGHTING:INTERIOREQUIPMENT:OTHERFUEL2" - not found.
   ** Warning ** Output:Meter: invalid Key Name="MISC FIREPLACE:INTERIOREQUIPMENT:OTHERFUEL2" - not found.
   ** Warning ** Output:Meter: invalid Key Name="CLOTHES DRYER:INTERIOREQUIPMENT:COAL" - not found.
   ** Warning ** Output:Meter: invalid Key Name="COOKING RANGE:INTERIOREQUIPMENT:COAL" - not found.
   ** Warning ** Output:Meter: invalid Key Name="MISC GRILL:INTERIOREQUIPMENT:COAL" - not found.
   ** Warning ** Output:Meter: invalid Key Name="MISC LIGHTING:INTERIOREQUIPMENT:COAL" - not found.
   ** Warning ** Output:Meter: invalid Key Name="MISC FIREPLACE:INTERIOREQUIPMENT:COAL" - not found.
   ************* Testing Individual Branch Integrity
   ************* All Branches passed integrity testing
   ************* Testing Individual Supply Air Path Integrity
   ************* All Supply Air Paths passed integrity testing
   ************* Testing Individual Return Air Path Integrity
   ************* All Return Air Paths passed integrity testing
   ************* No node connection errors were found.
   ************* Beginning Simulation
   ************* Simulation Error Summary *************
   ** Warning ** The following Report Variables were requested but not generated -- check.rdd file
   **   ~~~   ** Either the IDF did not contain these elements, the variable name is misspelled,
   **   ~~~   ** or the requested variable is an advanced output which requires Output : Diagnostics, DisplayAdvancedReportVariables;
   ************* Key=ideal, VarName=ZONE IDEAL LOADS ZONE SENSIBLE HEATING ENERGY, Frequency=
   ************* Key=ideal, VarName=ZONE IDEAL LOADS ZONE SENSIBLE COOLING ENERGY, Frequency=
   ************* Key=central ac unitary system, VarName=UNITARY SYSTEM HEATING ANCILLARY ELECTRICITY ENERGY, Frequency=
   ************* Key=central ac unitary system, VarName=UNITARY SYSTEM HEATING ANCILLARY NATURALGAS ENERGY, Frequency=
   ************* Key=central ac unitary system, VarName=UNITARY SYSTEM HEATING ANCILLARY FUELOILNO2 ENERGY, Frequency=
   ************* Key=central ac unitary system, VarName=UNITARY SYSTEM HEATING ANCILLARY PROPANE ENERGY, Frequency=
   ************* Key=central ac unitary system, VarName=UNITARY SYSTEM HEATING ANCILLARY OTHERFUEL1 ENERGY, Frequency=
   ************* Key=central ac unitary system, VarName=UNITARY SYSTEM HEATING ANCILLARY OTHERFUEL2 ENERGY, Frequency=
   ************* Key=central ac unitary system, VarName=UNITARY SYSTEM HEATING ANCILLARY COAL ENERGY, Frequency=
   ************* Key=furnace htg coil, VarName=HEATING COIL FUELOILNO2 ENERGY, Frequency=
   ************* Key=furnace htg coil, VarName=HEATING COIL PROPANE ENERGY, Frequency=
   ************* Key=furnace htg coil, VarName=HEATING COIL OTHERFUEL1 ENERGY, Frequency=
   ************* Key=furnace htg coil, VarName=HEATING COIL OTHERFUEL2 ENERGY, Frequency=
   ************* Key=furnace htg coil, VarName=HEATING COIL COAL ENERGY, Frequency=
   ************* Key=furnace unitary system, VarName=UNITARY SYSTEM HEATING ANCILLARY NATURALGAS ENERGY, Frequency=
   ************* Key=furnace unitary system, VarName=UNITARY SYSTEM HEATING ANCILLARY FUELOILNO2 ENERGY, Frequency=
   ************* Key=furnace unitary system, VarName=UNITARY SYSTEM HEATING ANCILLARY PROPANE ENERGY, Frequency=
   ************* Key=furnace unitary system, VarName=UNITARY SYSTEM HEATING ANCILLARY OTHERFUEL1 ENERGY, Frequency=
   ************* Key=furnace unitary system, VarName=UNITARY SYSTEM HEATING ANCILLARY OTHERFUEL2 ENERGY, Frequency=
   ************* Key=furnace unitary system, VarName=UNITARY SYSTEM HEATING ANCILLARY COAL ENERGY, Frequency=
   ************* Key=water heater, VarName=WATER HEATER NATURALGAS ENERGY, Frequency=
   ************* Key=water heater, VarName=WATER HEATER OFF CYCLE PARASITIC NATURALGAS ENERGY, Frequency=
   ************* Key=water heater, VarName=WATER HEATER ON CYCLE PARASITIC NATURALGAS ENERGY, Frequency=
   ************* Key=water heater, VarName=WATER HEATER FUELOILNO2 ENERGY, Frequency=
   ************* Key=water heater, VarName=WATER HEATER OFF CYCLE PARASITIC FUELOILNO2 ENERGY, Frequency=
   ************* Key=water heater, VarName=WATER HEATER ON CYCLE PARASITIC FUELOILNO2 ENERGY, Frequency=
   ************* Key=water heater, VarName=WATER HEATER PROPANE ENERGY, Frequency=
   ************* Key=water heater, VarName=WATER HEATER OFF CYCLE PARASITIC PROPANE ENERGY, Frequency=
   ************* Key=water heater, VarName=WATER HEATER ON CYCLE PARASITIC PROPANE ENERGY, Frequency=
   ************* Key=water heater, VarName=WATER HEATER OTHERFUEL1 ENERGY, Frequency=
   ************* Key=water heater, VarName=WATER HEATER OFF CYCLE PARASITIC OTHERFUEL1 ENERGY, Frequency=
   ************* Key=water heater, VarName=WATER HEATER ON CYCLE PARASITIC OTHERFUEL1 ENERGY, Frequency=
   ************* Key=water heater, VarName=WATER HEATER OTHERFUEL2 ENERGY, Frequency=
   ************* Key=water heater, VarName=WATER HEATER OFF CYCLE PARASITIC OTHERFUEL2 ENERGY, Frequency=
   ************* Key=water heater, VarName=WATER HEATER ON CYCLE PARASITIC OTHERFUEL2 ENERGY, Frequency=
   ************* Key=water heater, VarName=WATER HEATER COAL ENERGY, Frequency=
   ************* Key=water heater, VarName=WATER HEATER OFF CYCLE PARASITIC COAL ENERGY, Frequency=
   ************* Key=water heater, VarName=WATER HEATER ON CYCLE PARASITIC COAL ENERGY, Frequency=
   ************* Key=other heated space, VarName=SCHEDULE VALUE, Frequency=Hourly
   ************* Key=other multifamily buffer space, VarName=SCHEDULE VALUE, Frequency=Hourly
   ************* Key=other non-freezing space, VarName=SCHEDULE VALUE, Frequency=Hourly
   ************* Key=other housing unit, VarName=SCHEDULE VALUE, Frequency=Hourly
   ************* Key=exterior wall, VarName=SCHEDULE VALUE, Frequency=Hourly
   ************* Key=under slab, VarName=SCHEDULE VALUE, Frequency=Hourly
   ************* Key=central ac unitary system, VarName=UNITARY SYSTEM HEATING ANCILLARY ELECTRICITY ENERGY, Frequency=Hourly
   ************* Key=central ac unitary system, VarName=UNITARY SYSTEM HEATING ANCILLARY NATURALGAS ENERGY, Frequency=Hourly
   ************* Key=central ac unitary system, VarName=UNITARY SYSTEM HEATING ANCILLARY FUELOILNO2 ENERGY, Frequency=Hourly
   ************* Key=central ac unitary system, VarName=UNITARY SYSTEM HEATING ANCILLARY PROPANE ENERGY, Frequency=Hourly
   ************* Key=central ac unitary system, VarName=UNITARY SYSTEM HEATING ANCILLARY OTHERFUEL1 ENERGY, Frequency=Hourly
   ************* Key=central ac unitary system, VarName=UNITARY SYSTEM HEATING ANCILLARY OTHERFUEL2 ENERGY, Frequency=Hourly
   ************* Key=central ac unitary system, VarName=UNITARY SYSTEM HEATING ANCILLARY COAL ENERGY, Frequency=Hourly
   ************* Key=furnace htg coil, VarName=HEATING COIL FUELOILNO2 ENERGY, Frequency=Hourly
   ************* Key=furnace htg coil, VarName=HEATING COIL PROPANE ENERGY, Frequency=Hourly
   ************* Key=furnace htg coil, VarName=HEATING COIL OTHERFUEL1 ENERGY, Frequency=Hourly
   ************* Key=furnace htg coil, VarName=HEATING COIL OTHERFUEL2 ENERGY, Frequency=Hourly
   ************* Key=furnace htg coil, VarName=HEATING COIL COAL ENERGY, Frequency=Hourly
   ************* Key=furnace unitary system, VarName=UNITARY SYSTEM HEATING ANCILLARY NATURALGAS ENERGY, Frequency=Hourly
   ************* Key=furnace unitary system, VarName=UNITARY SYSTEM HEATING ANCILLARY FUELOILNO2 ENERGY, Frequency=Hourly
   ************* Key=furnace unitary system, VarName=UNITARY SYSTEM HEATING ANCILLARY PROPANE ENERGY, Frequency=Hourly
   ************* Key=furnace unitary system, VarName=UNITARY SYSTEM HEATING ANCILLARY OTHERFUEL1 ENERGY, Frequency=Hourly
   ************* Key=furnace unitary system, VarName=UNITARY SYSTEM HEATING ANCILLARY OTHERFUEL2 ENERGY, Frequency=Hourly
   ************* Key=furnace unitary system, VarName=UNITARY SYSTEM HEATING ANCILLARY COAL ENERGY, Frequency=Hourly
   ************* Key=water heater, VarName=WATER HEATER NATURALGAS ENERGY, Frequency=Hourly
   ************* Key=water heater, VarName=WATER HEATER OFF CYCLE PARASITIC NATURALGAS ENERGY, Frequency=Hourly
   ************* Key=water heater, VarName=WATER HEATER ON CYCLE PARASITIC NATURALGAS ENERGY, Frequency=Hourly
   ************* Key=water heater, VarName=WATER HEATER FUELOILNO2 ENERGY, Frequency=Hourly
   ************* Key=water heater, VarName=WATER HEATER OFF CYCLE PARASITIC FUELOILNO2 ENERGY, Frequency=Hourly
   ************* Key=water heater, VarName=WATER HEATER ON CYCLE PARASITIC FUELOILNO2 ENERGY, Frequency=Hourly
   ************* Key=water heater, VarName=WATER HEATER PROPANE ENERGY, Frequency=Hourly
   ************* Key=water heater, VarName=WATER HEATER OFF CYCLE PARASITIC PROPANE ENERGY, Frequency=Hourly
   ************* Key=water heater, VarName=WATER HEATER ON CYCLE PARASITIC PROPANE ENERGY, Frequency=Hourly
   ************* Key=water heater, VarName=WATER HEATER OTHERFUEL1 ENERGY, Frequency=Hourly
   ************* Key=water heater, VarName=WATER HEATER OFF CYCLE PARASITIC OTHERFUEL1 ENERGY, Frequency=Hourly
   ************* Key=water heater, VarName=WATER HEATER ON CYCLE PARASITIC OTHERFUEL1 ENERGY, Frequency=Hourly
   ************* Key=water heater, VarName=WATER HEATER OTHERFUEL2 ENERGY, Frequency=Hourly
   ************* Key=water heater, VarName=WATER HEATER OFF CYCLE PARASITIC OTHERFUEL2 ENERGY, Frequency=Hourly
   ************* Key=water heater, VarName=WATER HEATER ON CYCLE PARASITIC OTHERFUEL2 ENERGY, Frequency=Hourly
   ************* Key=water heater, VarName=WATER HEATER COAL ENERGY, Frequency=Hourly
   ************* Key=water heater, VarName=WATER HEATER OFF CYCLE PARASITIC COAL ENERGY, Frequency=Hourly
   ************* Key=water heater, VarName=WATER HEATER ON CYCLE PARASITIC COAL ENERGY, Frequency=Hourly
   ************* There are 2 unused objects in input.
   ************* Use Output:Diagnostics,DisplayUnusedObjects; to see them.
   ************* There are 2 unused schedules in input.
   ************* There are 2 unused week schedules in input.
   ************* There are 4 unused day schedules in input.
   ************* Use Output:Diagnostics,DisplayUnusedSchedules; to see them.
   *************
   ************* ===== Final Error Summary =====
   ************* The following error categories occurred.  Consider correcting or noting.
   ************* Nominally Unused Constructions
   ************* ..The nominally unused constructions warning is provided to alert you to potential conditions that can cause
   ************* ..extra time during simulation. Each construction is calculated by the algorithm indicated in the HeatBalanceAlgorithm
   ************* ..object. You may remove the constructions indicated (when you use the DisplayExtraWarnings option).
   *************
   ************* EnergyPlus Warmup Error Summary. During Warmup: 0 Warning; 0 Severe Errors.
   ************* EnergyPlus Sizing Error Summary. During Sizing: 0 Warning; 0 Severe Errors.
   ************* EnergyPlus Completed Successfully-- 112 Warning; 0 Severe Errors; Elapsed Time=00hr 00min  7.14sec
