Program Version,EnergyPlus, Version 9.3.0-baff08990c, YMD=2020.06.05 10:53,
   ** Warning ** Timestep: Requested number (1) is less than the suggested minimum of 4.
   **   ~~~   ** Please see entry for Timestep in Input/Output Reference for discussion of considerations.
   ** Warning ** GetSurfaceData: Very small surface area[5.89412E-004], Surface=SURFACE EXTERIORDOORAREA
   ** Warning ** GetSurfaceData: Very small surface area[9.25561E-004], Surface=SURFACE WINDOWAREAEAST
   ** Warning ** GetSurfaceData: Very small surface area[9.25561E-004], Surface=SURFACE WINDOWAREANORTH
   ** Warning ** GetSurfaceData: Very small surface area[9.25561E-004], Surface=SURFACE WINDOWAREASOUTH
   ** Warning ** GetSurfaceData: Very small surface area[9.25561E-004], Surface=SURFACE WINDOWAREAWEST
   ************* Note that the following warning(s) may/will occur if you have not enclosed your zone completely.
   ** Warning ** Entered Zone Volumes differ from calculated zone volume(s).
   **   ~~~   ** ...use Output:Diagnostics,DisplayExtraWarnings; to show more details on individual zones.
   ** Warning ** CalculateZoneVolume: 2 zones are not fully enclosed. For more details use:  Output:Diagnostics,DisplayExtrawarnings; 
   ** Warning ** CheckUsedConstructions: There are 1 nominally unused constructions in input.
   **   ~~~   ** For explicit details on each unused construction, use Output:Diagnostics,DisplayExtraWarnings;
   ** Warning ** GetInputViewFactors: ComplexFenestrationProperty:SolarAbsorbedLayers="LIVING SPACE", not enough values.
   **   ~~~   ** ...Number of input values [217] is less than the required number=[729] Missing surface pairs will have a zero view factor.
   ** Warning ** GetInputViewFactors: Output:DaylightFactors="LIVING SPACE", not enough values.
   **   ~~~   ** ...Number of input values [217] is less than the required number=[729] Missing surface pairs will have a zero view factor.
   ** Warning ** The Standard Ratings is calculated for Coil:Cooling:DX:SingleSpeed = CENTRAL AC AND FURNACE CLG COIL but not at the AHRI test condition due to curve out of bound.
   **   ~~~   **  Review the Standard Ratings calculations in the Engineering Reference for this coil type. Also, use Output:Diagnostics, DisplayExtraWarnings for further guidance.
   ** Warning ** Check input. Pump nominal power or motor efficiency is set to 0, for pump=PUMP VARIABLE SPEED 1
   ** Warning ** Output:Meter: invalid Key Name="FUELOIL#1:FACILITY" - not found.
   ** Warning ** Output:Meter: invalid Key Name="PROPANE:FACILITY" - not found.
   ** Warning ** Output:Meter: invalid Key Name="OTHERFUEL1:FACILITY" - not found.
   ** Warning ** Output:Meter: invalid Key Name="OTHERFUEL2:FACILITY" - not found.
   ** Warning ** Output:Meter: invalid Key Name="GARAGE LIGHTING:INTERIORLIGHTS:ELECTRICITY" - not found.
   ** Warning ** Output:Meter: invalid Key Name="CEILING FAN:INTERIOREQUIPMENT:ELECTRICITY" - not found.
   ** Warning ** Output:Meter: invalid Key Name="ELECTRICITYPRODUCED:FACILITY" - not found.
   ** Warning ** Output:Meter: invalid Key Name="CLOTHES DRYER:INTERIOREQUIPMENT:GAS" - not found.
   ** Warning ** Output:Meter: invalid Key Name="COOKING RANGE:INTERIOREQUIPMENT:GAS" - not found.
   ** Warning ** Output:Meter: invalid Key Name="CLOTHES DRYER:INTERIOREQUIPMENT:FUELOIL#1" - not found.
   ** Warning ** Output:Meter: invalid Key Name="COOKING RANGE:INTERIOREQUIPMENT:FUELOIL#1" - not found.
   ** Warning ** Output:Meter: invalid Key Name="CLOTHES DRYER:INTERIOREQUIPMENT:PROPANE" - not found.
   ** Warning ** Output:Meter: invalid Key Name="COOKING RANGE:INTERIOREQUIPMENT:PROPANE" - not found.
   ** Warning ** Output:Meter: invalid Key Name="CLOTHES DRYER:INTERIOREQUIPMENT:OTHERFUEL1" - not found.
   ** Warning ** Output:Meter: invalid Key Name="COOKING RANGE:INTERIOREQUIPMENT:OTHERFUEL1" - not found.
   ** Warning ** Output:Meter: invalid Key Name="CLOTHES DRYER:INTERIOREQUIPMENT:OTHERFUEL2" - not found.
   ** Warning ** Output:Meter: invalid Key Name="COOKING RANGE:INTERIOREQUIPMENT:OTHERFUEL2" - not found.
   ** Warning ** Output:Meter: invalid Key Name="FUELOIL#1:FACILITY" - not found.
   ** Warning ** Output:Meter: invalid Key Name="PROPANE:FACILITY" - not found.
   ** Warning ** Output:Meter: invalid Key Name="OTHERFUEL1:FACILITY" - not found.
   ** Warning ** Output:Meter: invalid Key Name="OTHERFUEL2:FACILITY" - not found.
   ** Warning ** Output:Meter: invalid Key Name="GARAGE LIGHTING:INTERIORLIGHTS:ELECTRICITY" - not found.
   ** Warning ** Output:Meter: invalid Key Name="CEILING FAN:INTERIOREQUIPMENT:ELECTRICITY" - not found.
   ** Warning ** Output:Meter: invalid Key Name="ELECTRICITYPRODUCED:FACILITY" - not found.
   ** Warning ** Output:Meter: invalid Key Name="CLOTHES DRYER:INTERIOREQUIPMENT:GAS" - not found.
   ** Warning ** Output:Meter: invalid Key Name="COOKING RANGE:INTERIOREQUIPMENT:GAS" - not found.
   ** Warning ** Output:Meter: invalid Key Name="CLOTHES DRYER:INTERIOREQUIPMENT:FUELOIL#1" - not found.
   ** Warning ** Output:Meter: invalid Key Name="COOKING RANGE:INTERIOREQUIPMENT:FUELOIL#1" - not found.
   ** Warning ** Output:Meter: invalid Key Name="CLOTHES DRYER:INTERIOREQUIPMENT:PROPANE" - not found.
   ** Warning ** Output:Meter: invalid Key Name="COOKING RANGE:INTERIOREQUIPMENT:PROPANE" - not found.
   ** Warning ** Output:Meter: invalid Key Name="CLOTHES DRYER:INTERIOREQUIPMENT:OTHERFUEL1" - not found.
   ** Warning ** Output:Meter: invalid Key Name="COOKING RANGE:INTERIOREQUIPMENT:OTHERFUEL1" - not found.
   ** Warning ** Output:Meter: invalid Key Name="CLOTHES DRYER:INTERIOREQUIPMENT:OTHERFUEL2" - not found.
   ** Warning ** Output:Meter: invalid Key Name="COOKING RANGE:INTERIOREQUIPMENT:OTHERFUEL2" - not found.
   ************* Testing Individual Branch Integrity
   ************* All Branches passed integrity testing
   ************* Testing Individual Supply Air Path Integrity
   ************* All Supply Air Paths passed integrity testing
   ************* Testing Individual Return Air Path Integrity
   ************* All Return Air Paths passed integrity testing
   ************* No node connection errors were found.
   ************* Beginning Simulation
   ** Warning ** CalcDoe2DXCoil: Coil:Cooling:DX:SingleSpeed="CENTRAL AC AND FURNACE CLG COIL" - Air volume flow rate per watt of rated total cooling capacity is out of range at 6.903E-005 m3/s/W.
   **   ~~~   **  Environment=RUN PERIOD 1, at Simulation time=05/10 13:00 - 14:00
   **   ~~~   ** Expected range for VolumeFlowPerRatedTotalCapacity=[2.684E-005--6.713E-005]
   **   ~~~   ** Possible causes include inconsistent air flow rates in system components,
   **   ~~~   ** or variable air volume [VAV] system using incorrect coil type.
   ************* Simulation Error Summary *************
   ** Warning ** The following Report Variables were requested but not generated -- check.rdd file
   **   ~~~   ** Either the IDF did not contain these elements, the variable name is misspelled,
   **   ~~~   ** or the requested variable is an advanced output which requires Output : Diagnostics, DisplayAdvancedReportVariables;
   ************* Key=central ac and furnace htg coil, VarName=HEATING COIL FUELOIL#1 ENERGY, Frequency=
   ************* Key=central ac and furnace htg coil, VarName=HEATING COIL PROPANE ENERGY, Frequency=
   ************* Key=central ac and furnace htg coil, VarName=HEATING COIL OTHERFUEL1 ENERGY, Frequency=
   ************* Key=central ac and furnace htg coil, VarName=HEATING COIL OTHERFUEL2 ENERGY, Frequency=
   ************* Key=water heater, VarName=WATER HEATER GAS ENERGY, Frequency=
   ************* Key=water heater, VarName=WATER HEATER FUELOIL#1 ENERGY, Frequency=
   ************* Key=water heater, VarName=WATER HEATER PROPANE ENERGY, Frequency=
   ************* Key=water heater, VarName=WATER HEATER OTHERFUEL1 ENERGY, Frequency=
   ************* Key=water heater, VarName=WATER HEATER OTHERFUEL2 ENERGY, Frequency=
   ************* Key=other heated space, VarName=SCHEDULE VALUE, Frequency=Hourly
   ************* Key=other multifamily buffer space, VarName=SCHEDULE VALUE, Frequency=Hourly
   ************* Key=other non-freezing space, VarName=SCHEDULE VALUE, Frequency=Hourly
   ************* Key=other housing unit, VarName=SCHEDULE VALUE, Frequency=Hourly
   ************* Key=exterior wall, VarName=SCHEDULE VALUE, Frequency=Hourly
   ************* Key=under slab, VarName=SCHEDULE VALUE, Frequency=Hourly
   ************* Key=central ac and furnace htg coil, VarName=HEATING COIL FUELOIL#1 ENERGY, Frequency=Hourly
   ************* Key=central ac and furnace htg coil, VarName=HEATING COIL PROPANE ENERGY, Frequency=Hourly
   ************* Key=central ac and furnace htg coil, VarName=HEATING COIL OTHERFUEL1 ENERGY, Frequency=Hourly
   ************* Key=central ac and furnace htg coil, VarName=HEATING COIL OTHERFUEL2 ENERGY, Frequency=Hourly
   ************* Key=water heater, VarName=WATER HEATER GAS ENERGY, Frequency=Hourly
   ************* Key=water heater, VarName=WATER HEATER FUELOIL#1 ENERGY, Frequency=Hourly
   ************* Key=water heater, VarName=WATER HEATER PROPANE ENERGY, Frequency=Hourly
   ************* Key=water heater, VarName=WATER HEATER OTHERFUEL1 ENERGY, Frequency=Hourly
   ************* Key=water heater, VarName=WATER HEATER OTHERFUEL2 ENERGY, Frequency=Hourly
   ************* There are 1 unused objects in input.
   ************* Use Output:Diagnostics,DisplayUnusedObjects; to see them.
   ************* There are 2 unused schedules in input.
   ************* There are 2 unused week schedules in input.
   ************* There are 5 unused day schedules in input.
   ************* Use Output:Diagnostics,DisplayUnusedSchedules; to see them.
   *************
   ************* ===== Recurring Error Summary =====
   ************* The following recurring error messages occurred.
   *************
   *************  ** Warning ** CalcDoe2DXCoil: Coil:Cooling:DX:SingleSpeed="CENTRAL AC AND FURNACE CLG COIL" - Air volume flow rate per watt of rated total cooling capacity is out of range error continues...
   *************  **   ~~~   **   This error occurred 12898 total times;
   *************  **   ~~~   **   during Warmup 0 times;
   *************  **   ~~~   **   during Sizing 0 times.
   *************  **   ~~~   **   Max=7.016037E-005  Min=6.748150E-005
   *************
   *************
   ************* ===== Final Error Summary =====
   ************* The following error categories occurred.  Consider correcting or noting.
   ************* Nominally Unused Constructions
   ************* ..The nominally unused constructions warning is provided to alert you to potential conditions that can cause
   ************* ..extra time during simulation. Each construction is calculated by the algorithm indicated in the HeatBalanceAlgorithm
   ************* ..object. You may remove the constructions indicated (when you use the DisplayExtraWarnings option).
   *************
   ************* EnergyPlus Warmup Error Summary. During Warmup: 0 Warning; 0 Severe Errors.
   ************* EnergyPlus Sizing Error Summary. During Sizing: 0 Warning; 0 Severe Errors.
   ************* EnergyPlus Completed Successfully-- 12946 Warning; 0 Severe Errors; Elapsed Time=00hr 00min  7.20sec
