  Processing Data Dictionary (Energy+.idd) File -- Complete
  Maximum number of Alpha Args=        4500
  Maximum number of Numeric Args=       21040
  Number of Object Definitions=         727
  Number of Section Definitions=           2
  Total Number of Alpha Fields=       18098
  Total Number of Numeric Fields=       39469
  Total Number of Fields=       57567
  Processing Input Data File (in.idf) -- Start
      1 !-Generator IDFEditor 1.44
      2 !-Option SortedOrder
      3 
      4 !-NOTE: All comments with '!-' are ignored by the IDFEditor and are generated automatically.
      5 !-      Use '!' comments if they need to be retained when using the IDFEditor.
      6 
      7 
      8 !-   ===========  ALL OBJECTS IN CLASS: VERSION ===========
      9 
     10 Version,
     11     8.1;                     !- Version Identifier
     12 
     13 
     14 !-   ===========  ALL OBJECTS IN CLASS: SIMULATIONCONTROL ===========
     15 
     16 SimulationControl,
     17     Yes,                     !- Do Zone Sizing Calculation
     18     Yes,                     !- Do System Sizing Calculation
     19     Yes,                     !- Do Plant Sizing Calculation
     20     Yes,                     !- Run Simulation for Sizing Periods
     21     Yes;                     !- Run Simulation for Weather File Run Periods
     22 
     23 
     24 !-   ===========  ALL OBJECTS IN CLASS: BUILDING ===========
     25 
     26 Building,
     27     simple residential geometry,  !- Name
     28     ,                        !- North Axis {deg}
     29     ,                        !- Terrain
     30     ,                        !- Loads Convergence Tolerance Value
     31     ,                        !- Temperature Convergence Tolerance Value {deltaC}
     32     ,                        !- Solar Distribution
     33     ,                        !- Maximum Number of Warmup Days
     34     ;                        !- Minimum Number of Warmup Days
     35 
     36 
     37 !-   ===========  ALL OBJECTS IN CLASS: SHADOWCALCULATION ===========
     38 
     39 ShadowCalculation,
     40     AverageOverDaysInFrequency,  !- Calculation Method
     41     7,                       !- Calculation Frequency
     42     15000;                   !- Maximum Figures in Shadow Overlap Calculations
     43 
     44 
     45 !-   ===========  ALL OBJECTS IN CLASS: SURFACECONVECTIONALGORITHM:INSIDE ===========
     46 
     47 SurfaceConvectionAlgorithm:Inside,
     48     TARP;                    !- Algorithm
     49 
     50 
     51 !-   ===========  ALL OBJECTS IN CLASS: SURFACECONVECTIONALGORITHM:OUTSIDE ===========
     52 
     53 SurfaceConvectionAlgorithm:Outside,
     54     DOE-2;                   !- Algorithm
     55 
     56 
     57 !-   ===========  ALL OBJECTS IN CLASS: HEATBALANCEALGORITHM ===========
     58 
     59 HeatBalanceAlgorithm,
     60     ConductionTransferFunction,  !- Algorithm
     61     200;                     !- Surface Temperature Upper Limit {C}
     62 
     63 
     64 !-   ===========  ALL OBJECTS IN CLASS: ZONEAIRHEATBALANCEALGORITHM ===========
     65 
     66 ZoneAirHeatBalanceAlgorithm,
     67     AnalyticalSolution;      !- Algorithm
     68 
     69 
     70 !-   ===========  ALL OBJECTS IN CLASS: TIMESTEP ===========
     71 
     72 Timestep,
     73     1;                       !- Number of Timesteps per Hour
     74 
     75 
     76 !-   ===========  ALL OBJECTS IN CLASS: CONVERGENCELIMITS ===========
     77 
     78 ConvergenceLimits,
     79     1;                       !- Minimum System Timestep {minutes}
     80 
     81 
     82 !-   ===========  ALL OBJECTS IN CLASS: PROGRAMCONTROL ===========
     83 
     84 ProgramControl,
     85     1;                       !- Number of Threads Allowed
     86 
     87 
     88 !-   ===========  ALL OBJECTS IN CLASS: SITE:LOCATION ===========
     89 
     90 Site:Location,
     91     Site 1,                  !- Name
     92     39.74,                   !- Latitude {deg}
     93     -105.18,                 !- Longitude {deg}
     94     -7,                      !- Time Zone {hr}
     95     1829;                    !- Elevation {m}
     96 
     97 
     98 !-   ===========  ALL OBJECTS IN CLASS: SIZINGPERIOD:DESIGNDAY ===========
     99 
    100 SizingPeriod:DesignDay,
    101     Denver Centennial  Golden   N Ann Clg .4% Condns DB=>MWB,  !- Name
    102     7,                       !- Month
    103     21,                      !- Day of Month
    104     SummerDesignDay,         !- Day Type
    105     33,                      !- Maximum Dry-Bulb Temperature {C}
    106     15.2,                    !- Daily Dry-Bulb Temperature Range {deltaC}
    107     DefaultMultipliers,      !- Dry-Bulb Temperature Range Modifier Type
    108     ,                        !- Dry-Bulb Temperature Range Modifier Day Schedule Name
    109     Wetbulb,                 !- Humidity Condition Type
    110     15.7,                    !- Wetbulb or DewPoint at Maximum Dry-Bulb {C}
    111     ,                        !- Humidity Condition Day Schedule Name
    112     ,                        !- Humidity Ratio at Maximum Dry-Bulb {kgWater/kgDryAir}
    113     ,                        !- Enthalpy at Maximum Dry-Bulb {J/kg}
    114     ,                        !- Daily Wet-Bulb Temperature Range {deltaC}
    115     81198,                   !- Barometric Pressure {Pa}
    116     4.9,                     !- Wind Speed {m/s}
    117     0,                       !- Wind Direction {deg}
    118     No,                      !- Rain Indicator
    119     No,                      !- Snow Indicator
    120     No,                      !- Daylight Saving Time Indicator
    121     ASHRAETau,               !- Solar Model Indicator
    122     ,                        !- Beam Solar Day Schedule Name
    123     ,                        !- Diffuse Solar Day Schedule Name
    124     0.424,                   !- ASHRAE Clear Sky Optical Depth for Beam Irradiance (taub) {dimensionless}
    125     2.025;                   !- ASHRAE Clear Sky Optical Depth for Diffuse Irradiance (taud) {dimensionless}
    126 
    127 SizingPeriod:DesignDay,
    128     Denver Centennial  Golden   N Ann Clg .4% Condns DP=>MDB,  !- Name
    129     7,                       !- Month
    130     21,                      !- Day of Month
    131     SummerDesignDay,         !- Day Type
    132     20.2,                    !- Maximum Dry-Bulb Temperature {C}
    133     15.2,                    !- Daily Dry-Bulb Temperature Range {deltaC}
    134     DefaultMultipliers,      !- Dry-Bulb Temperature Range Modifier Type
    135     ,                        !- Dry-Bulb Temperature Range Modifier Day Schedule Name
    136     Dewpoint,                !- Humidity Condition Type
    137     16.1,                    !- Wetbulb or DewPoint at Maximum Dry-Bulb {C}
    138     ,                        !- Humidity Condition Day Schedule Name
    139     ,                        !- Humidity Ratio at Maximum Dry-Bulb {kgWater/kgDryAir}
    140     ,                        !- Enthalpy at Maximum Dry-Bulb {J/kg}
    141     ,                        !- Daily Wet-Bulb Temperature Range {deltaC}
    142     81198,                   !- Barometric Pressure {Pa}
    143     4.9,                     !- Wind Speed {m/s}
    144     0,                       !- Wind Direction {deg}
    145     No,                      !- Rain Indicator
    146     No,                      !- Snow Indicator
    147     No,                      !- Daylight Saving Time Indicator
    148     ASHRAETau,               !- Solar Model Indicator
    149     ,                        !- Beam Solar Day Schedule Name
    150     ,                        !- Diffuse Solar Day Schedule Name
    151     0.424,                   !- ASHRAE Clear Sky Optical Depth for Beam Irradiance (taub) {dimensionless}
    152     2.025;                   !- ASHRAE Clear Sky Optical Depth for Diffuse Irradiance (taud) {dimensionless}
    153 
    154 SizingPeriod:DesignDay,
    155     Denver Centennial  Golden   N Ann Clg .4% Condns Enth=>MDB,  !- Name
    156     7,                       !- Month
    157     21,                      !- Day of Month
    158     SummerDesignDay,         !- Day Type
    159     27.3,                    !- Maximum Dry-Bulb Temperature {C}
    160     15.2,                    !- Daily Dry-Bulb Temperature Range {deltaC}
    161     DefaultMultipliers,      !- Dry-Bulb Temperature Range Modifier Type
    162     ,                        !- Dry-Bulb Temperature Range Modifier Day Schedule Name
    163     Enthalpy,                !- Humidity Condition Type
    164     ,                        !- Wetbulb or DewPoint at Maximum Dry-Bulb {C}
    165     ,                        !- Humidity Condition Day Schedule Name
    166     ,                        !- Humidity Ratio at Maximum Dry-Bulb {kgWater/kgDryAir}
    167     59700,                   !- Enthalpy at Maximum Dry-Bulb {J/kg}
    168     ,                        !- Daily Wet-Bulb Temperature Range {deltaC}
    169     81198,                   !- Barometric Pressure {Pa}
    170     4.9,                     !- Wind Speed {m/s}
    171     0,                       !- Wind Direction {deg}
    172     No,                      !- Rain Indicator
    173     No,                      !- Snow Indicator
    174     No,                      !- Daylight Saving Time Indicator
    175     ASHRAETau,               !- Solar Model Indicator
    176     ,                        !- Beam Solar Day Schedule Name
    177     ,                        !- Diffuse Solar Day Schedule Name
    178     0.424,                   !- ASHRAE Clear Sky Optical Depth for Beam Irradiance (taub) {dimensionless}
    179     2.025;                   !- ASHRAE Clear Sky Optical Depth for Diffuse Irradiance (taud) {dimensionless}
    180 
    181 SizingPeriod:DesignDay,
    182     Denver Centennial  Golden   N Ann Clg .4% Condns WB=>MDB,  !- Name
    183     7,                       !- Month
    184     21,                      !- Day of Month
    185     SummerDesignDay,         !- Day Type
    186     27.3,                    !- Maximum Dry-Bulb Temperature {C}
    187     15.2,                    !- Daily Dry-Bulb Temperature Range {deltaC}
    188     DefaultMultipliers,      !- Dry-Bulb Temperature Range Modifier Type
    189     ,                        !- Dry-Bulb Temperature Range Modifier Day Schedule Name
    190     Wetbulb,                 !- Humidity Condition Type
    191     18.4,                    !- Wetbulb or DewPoint at Maximum Dry-Bulb {C}
    192     ,                        !- Humidity Condition Day Schedule Name
    193     ,                        !- Humidity Ratio at Maximum Dry-Bulb {kgWater/kgDryAir}
    194     ,                        !- Enthalpy at Maximum Dry-Bulb {J/kg}
    195     ,                        !- Daily Wet-Bulb Temperature Range {deltaC}
    196     81198,                   !- Barometric Pressure {Pa}
    197     4.9,                     !- Wind Speed {m/s}
    198     0,                       !- Wind Direction {deg}
    199     No,                      !- Rain Indicator
    200     No,                      !- Snow Indicator
    201     No,                      !- Daylight Saving Time Indicator
    202     ASHRAETau,               !- Solar Model Indicator
    203     ,                        !- Beam Solar Day Schedule Name
    204     ,                        !- Diffuse Solar Day Schedule Name
    205     0.424,                   !- ASHRAE Clear Sky Optical Depth for Beam Irradiance (taub) {dimensionless}
    206     2.025;                   !- ASHRAE Clear Sky Optical Depth for Diffuse Irradiance (taud) {dimensionless}
    207 
    208 SizingPeriod:DesignDay,
    209     Denver Centennial  Golden   N Ann Htg 99.6% Condns DB,  !- Name
    210     12,                      !- Month
    211     21,                      !- Day of Month
    212     WinterDesignDay,         !- Day Type
    213     -18.8,                   !- Maximum Dry-Bulb Temperature {C}
    214     0,                       !- Daily Dry-Bulb Temperature Range {deltaC}
    215     DefaultMultipliers,      !- Dry-Bulb Temperature Range Modifier Type
    216     ,                        !- Dry-Bulb Temperature Range Modifier Day Schedule Name
    217     Wetbulb,                 !- Humidity Condition Type
    218     -18.8,                   !- Wetbulb or DewPoint at Maximum Dry-Bulb {C}
    219     ,                        !- Humidity Condition Day Schedule Name
    220     ,                        !- Humidity Ratio at Maximum Dry-Bulb {kgWater/kgDryAir}
    221     ,                        !- Enthalpy at Maximum Dry-Bulb {J/kg}
    222     ,                        !- Daily Wet-Bulb Temperature Range {deltaC}
    223     81198,                   !- Barometric Pressure {Pa}
    224     3,                       !- Wind Speed {m/s}
    225     340,                     !- Wind Direction {deg}
    226     No,                      !- Rain Indicator
    227     No,                      !- Snow Indicator
    228     No,                      !- Daylight Saving Time Indicator
    229     ASHRAEClearSky,          !- Solar Model Indicator
    230     ,                        !- Beam Solar Day Schedule Name
    231     ,                        !- Diffuse Solar Day Schedule Name
    232     ,                        !- ASHRAE Clear Sky Optical Depth for Beam Irradiance (taub) {dimensionless}
    233     ,                        !- ASHRAE Clear Sky Optical Depth for Diffuse Irradiance (taud) {dimensionless}
    234     0;                       !- Sky Clearness
    235 
    236 SizingPeriod:DesignDay,
    237     Denver Centennial  Golden   N Ann Htg Wind 99.6% Condns WS=>MCDB,  !- Name
    238     12,                      !- Month
    239     21,                      !- Day of Month
    240     WinterDesignDay,         !- Day Type
    241     3.9,                     !- Maximum Dry-Bulb Temperature {C}
    242     0,                       !- Daily Dry-Bulb Temperature Range {deltaC}
    243     DefaultMultipliers,      !- Dry-Bulb Temperature Range Modifier Type
    244     ,                        !- Dry-Bulb Temperature Range Modifier Day Schedule Name
    245     Wetbulb,                 !- Humidity Condition Type
    246     3.9,                     !- Wetbulb or DewPoint at Maximum Dry-Bulb {C}
    247     ,                        !- Humidity Condition Day Schedule Name
    248     ,                        !- Humidity Ratio at Maximum Dry-Bulb {kgWater/kgDryAir}
    249     ,                        !- Enthalpy at Maximum Dry-Bulb {J/kg}
    250     ,                        !- Daily Wet-Bulb Temperature Range {deltaC}
    251     81198,                   !- Barometric Pressure {Pa}
    252     12.2,                    !- Wind Speed {m/s}
    253     340,                     !- Wind Direction {deg}
    254     No,                      !- Rain Indicator
    255     No,                      !- Snow Indicator
    256     No,                      !- Daylight Saving Time Indicator
    257     ASHRAEClearSky,          !- Solar Model Indicator
    258     ,                        !- Beam Solar Day Schedule Name
    259     ,                        !- Diffuse Solar Day Schedule Name
    260     ,                        !- ASHRAE Clear Sky Optical Depth for Beam Irradiance (taub) {dimensionless}
    261     ,                        !- ASHRAE Clear Sky Optical Depth for Diffuse Irradiance (taud) {dimensionless}
    262     0;                       !- Sky Clearness
    263 
    264 SizingPeriod:DesignDay,
    265     Denver Centennial  Golden   N Ann Hum_n 99.6% Condns DP=>MCDB,  !- Name
    266     12,                      !- Month
    267     21,                      !- Day of Month
    268     WinterDesignDay,         !- Day Type
    269     -10.9,                   !- Maximum Dry-Bulb Temperature {C}
    270     0,                       !- Daily Dry-Bulb Temperature Range {deltaC}
    271     DefaultMultipliers,      !- Dry-Bulb Temperature Range Modifier Type
    272     ,                        !- Dry-Bulb Temperature Range Modifier Day Schedule Name
    273     Dewpoint,                !- Humidity Condition Type
    274     -21.6,                   !- Wetbulb or DewPoint at Maximum Dry-Bulb {C}
    275     ,                        !- Humidity Condition Day Schedule Name
    276     ,                        !- Humidity Ratio at Maximum Dry-Bulb {kgWater/kgDryAir}
    277     ,                        !- Enthalpy at Maximum Dry-Bulb {J/kg}
    278     ,                        !- Daily Wet-Bulb Temperature Range {deltaC}
    279     81198,                   !- Barometric Pressure {Pa}
    280     3,                       !- Wind Speed {m/s}
    281     340,                     !- Wind Direction {deg}
    282     No,                      !- Rain Indicator
    283     No,                      !- Snow Indicator
    284     No,                      !- Daylight Saving Time Indicator
    285     ASHRAEClearSky,          !- Solar Model Indicator
    286     ,                        !- Beam Solar Day Schedule Name
    287     ,                        !- Diffuse Solar Day Schedule Name
    288     ,                        !- ASHRAE Clear Sky Optical Depth for Beam Irradiance (taub) {dimensionless}
    289     ,                        !- ASHRAE Clear Sky Optical Depth for Diffuse Irradiance (taud) {dimensionless}
    290     0;                       !- Sky Clearness
    291 
    292 
    293 !-   ===========  ALL OBJECTS IN CLASS: RUNPERIOD ===========
    294 
    295 RunPeriod,
    296     Run Period 1,            !- Name
    297     1,                       !- Begin Month
    298     1,                       !- Begin Day of Month
    299     12,                      !- End Month
    300     31,                      !- End Day of Month
    301     Sunday,                  !- Day of Week for Start Day
    302     No,                      !- Use Weather File Holidays and Special Days
    303     No,                      !- Use Weather File Daylight Saving Period
    304     No,                      !- Apply Weekend Holiday Rule
    305     Yes,                     !- Use Weather File Rain Indicators
    306     Yes,                     !- Use Weather File Snow Indicators
    307     1;                       !- Number of Times Runperiod to be Repeated
    308 
    309 
    310 !-   ===========  ALL OBJECTS IN CLASS: SITE:WATERMAINSTEMPERATURE ===========
    311 
    312 Site:WaterMainsTemperature,
    313     Correlation,             !- Calculation Method
    314     ,                        !- Temperature Schedule Name
    315     9.76111111111118,        !- Annual Average Outdoor Air Temperature {C}
    316     22.8111111111111;        !- Maximum Difference In Monthly Average Outdoor Air Temperatures {deltaC}
    317 
    318 
    319 !-   ===========  ALL OBJECTS IN CLASS: SCHEDULETYPELIMITS ===========
    320 
    321 ScheduleTypeLimits,
    322     living Thermostat Schedule Type Limits,  !- Name
    323     0,                       !- Lower Limit Value
    324     4,                       !- Upper Limit Value
    325     DISCRETE;                !- Numeric Type
    326 
    327 ScheduleTypeLimits,
    328     Temperature 9,           !- Name
    329     ,                        !- Lower Limit Value
    330     ,                        !- Upper Limit Value
    331     Continuous,              !- Numeric Type
    332     temperature;             !- Unit Type
    333 
    334 ScheduleTypeLimits,
    335     Temperature 10,          !- Name
    336     ,                        !- Lower Limit Value
    337     ,                        !- Upper Limit Value
    338     Continuous,              !- Numeric Type
    339     temperature;             !- Unit Type
    340 
    341 ScheduleTypeLimits,
    342     ActivityLevel,           !- Name
    343     0,                       !- Lower Limit Value
    344     ,                        !- Upper Limit Value
    345     Continuous,              !- Numeric Type
    346     activitylevel;           !- Unit Type
    347 
    348 ScheduleTypeLimits,
    349     ActivityLevel 5,         !- Name
    350     0,                       !- Lower Limit Value
    351     ,                        !- Upper Limit Value
    352     Continuous,              !- Numeric Type
    353     activitylevel;           !- Unit Type
    354 
    355 ScheduleTypeLimits,
    356     ControlMode,             !- Name
    357     0,                       !- Lower Limit Value
    358     1,                       !- Upper Limit Value
    359     Discrete,                !- Numeric Type
    360     controlmode;             !- Unit Type
    361 
    362 ScheduleTypeLimits,
    363     FRACTION,                !- Name
    364     0,                       !- Lower Limit Value
    365     1,                       !- Upper Limit Value
    366     Continuous;              !- Numeric Type
    367 
    368 ScheduleTypeLimits,
    369     Fractional,              !- Name
    370     0,                       !- Lower Limit Value
    371     1,                       !- Upper Limit Value
    372     Continuous;              !- Numeric Type
    373 
    374 ScheduleTypeLimits,
    375     MULTIPLIER,              !- Name
    376     ,                        !- Lower Limit Value
    377     ,                        !- Upper Limit Value
    378     Continuous;              !- Numeric Type
    379 
    380 ScheduleTypeLimits,
    381     ON/OFF,                  !- Name
    382     0,                       !- Lower Limit Value
    383     1,                       !- Upper Limit Value
    384     Discrete;                !- Numeric Type
    385 
    386 ScheduleTypeLimits,
    387     OnOff,                   !- Name
    388     0,                       !- Lower Limit Value
    389     1,                       !- Upper Limit Value
    390     Discrete,                !- Numeric Type
    391     availability;            !- Unit Type
    392 
    393 ScheduleTypeLimits,
    394     Schedule Type Limits 1,  !- Name
    395     0,                       !- Lower Limit Value
    396     1,                       !- Upper Limit Value
    397     Discrete,                !- Numeric Type
    398     availability;            !- Unit Type
    399 
    400 ScheduleTypeLimits,
    401     Temperature,             !- Name
    402     ,                        !- Lower Limit Value
    403     ,                        !- Upper Limit Value
    404     Continuous,              !- Numeric Type
    405     temperature;             !- Unit Type
    406 
    407 ScheduleTypeLimits,
    408     Temperature 3,           !- Name
    409     ,                        !- Lower Limit Value
    410     ,                        !- Upper Limit Value
    411     Continuous,              !- Numeric Type
    412     temperature;             !- Unit Type
    413 
    414 ScheduleTypeLimits,
    415     Temperature 5,           !- Name
    416     ,                        !- Lower Limit Value
    417     ,                        !- Upper Limit Value
    418     Continuous,              !- Numeric Type
    419     temperature;             !- Unit Type
    420 
    421 ScheduleTypeLimits,
    422     Temperature 6,           !- Name
    423     ,                        !- Lower Limit Value
    424     ,                        !- Upper Limit Value
    425     Continuous,              !- Numeric Type
    426     temperature;             !- Unit Type
    427 
    428 ScheduleTypeLimits,
    429     Temperature 7,           !- Name
    430     ,                        !- Lower Limit Value
    431     ,                        !- Upper Limit Value
    432     Continuous,              !- Numeric Type
    433     temperature;             !- Unit Type
    434 
    435 ScheduleTypeLimits,
    436     Temperature 8,           !- Name
    437     ,                        !- Lower Limit Value
    438     ,                        !- Upper Limit Value
    439     Continuous,              !- Numeric Type
    440     temperature;             !- Unit Type
    441 
    442 
    443 !-   ===========  ALL OBJECTS IN CLASS: SCHEDULE:DAY:INTERVAL ===========
    444 
    445 Schedule:Day:Interval,
    446     HeatingSetPointSchedule01d,  !- Name
    447     Temperature 9,           !- Schedule Type Limits Name
    448     No,                      !- Interpolate to Timestep
    449     01:00,                   !- Time 1 {hh:mm}
    450     21.6666666666667,        !- Value Until Time 1
    451     02:00,                   !- Time 2 {hh:mm}
    452     21.6666666666667,        !- Value Until Time 2
    453     03:00,                   !- Time 3 {hh:mm}
    454     21.6666666666667,        !- Value Until Time 3
    455     04:00,                   !- Time 4 {hh:mm}
    456     21.6666666666667,        !- Value Until Time 4
    457     05:00,                   !- Time 5 {hh:mm}
    458     21.6666666666667,        !- Value Until Time 5
    459     06:00,                   !- Time 6 {hh:mm}
    460     21.6666666666667,        !- Value Until Time 6
    461     07:00,                   !- Time 7 {hh:mm}
    462     21.6666666666667,        !- Value Until Time 7
    463     08:00,                   !- Time 8 {hh:mm}
    464     21.6666666666667,        !- Value Until Time 8
    465     09:00,                   !- Time 9 {hh:mm}
    466     21.6666666666667,        !- Value Until Time 9
    467     10:00,                   !- Time 10 {hh:mm}
    468     21.6666666666667,        !- Value Until Time 10
    469     11:00,                   !- Time 11 {hh:mm}
    470     21.6666666666667,        !- Value Until Time 11
    471     12:00,                   !- Time 12 {hh:mm}
    472     21.6666666666667,        !- Value Until Time 12
    473     13:00,                   !- Time 13 {hh:mm}
    474     21.6666666666667,        !- Value Until Time 13
    475     14:00,                   !- Time 14 {hh:mm}
    476     21.6666666666667,        !- Value Until Time 14
    477     15:00,                   !- Time 15 {hh:mm}
    478     21.6666666666667,        !- Value Until Time 15
    479     16:00,                   !- Time 16 {hh:mm}
    480     21.6666666666667,        !- Value Until Time 16
    481     17:00,                   !- Time 17 {hh:mm}
    482     21.6666666666667,        !- Value Until Time 17
    483     18:00,                   !- Time 18 {hh:mm}
    484     21.6666666666667,        !- Value Until Time 18
    485     19:00,                   !- Time 19 {hh:mm}
    486     21.6666666666667,        !- Value Until Time 19
    487     20:00,                   !- Time 20 {hh:mm}
    488     21.6666666666667,        !- Value Until Time 20
    489     21:00,                   !- Time 21 {hh:mm}
    490     21.6666666666667,        !- Value Until Time 21
    491     22:00,                   !- Time 22 {hh:mm}
    492     21.6666666666667,        !- Value Until Time 22
    493     23:00,                   !- Time 23 {hh:mm}
    494     21.6666666666667,        !- Value Until Time 23
    495     24:00,                   !- Time 24 {hh:mm}
    496     21.6666666666667;        !- Value Until Time 24
    497 
    498 Schedule:Day:Interval,
    499     HeatingSetPointSchedule02d,  !- Name
    500     Temperature 9,           !- Schedule Type Limits Name
    501     No,                      !- Interpolate to Timestep
    502     01:00,                   !- Time 1 {hh:mm}
    503     21.6666666666667,        !- Value Until Time 1
    504     02:00,                   !- Time 2 {hh:mm}
    505     21.6666666666667,        !- Value Until Time 2
    506     03:00,                   !- Time 3 {hh:mm}
    507     21.6666666666667,        !- Value Until Time 3
    508     04:00,                   !- Time 4 {hh:mm}
    509     21.6666666666667,        !- Value Until Time 4
    510     05:00,                   !- Time 5 {hh:mm}
    511     21.6666666666667,        !- Value Until Time 5
    512     06:00,                   !- Time 6 {hh:mm}
    513     21.6666666666667,        !- Value Until Time 6
    514     07:00,                   !- Time 7 {hh:mm}
    515     21.6666666666667,        !- Value Until Time 7
    516     08:00,                   !- Time 8 {hh:mm}
    517     21.6666666666667,        !- Value Until Time 8
    518     09:00,                   !- Time 9 {hh:mm}
    519     21.6666666666667,        !- Value Until Time 9
    520     10:00,                   !- Time 10 {hh:mm}
    521     21.6666666666667,        !- Value Until Time 10
    522     11:00,                   !- Time 11 {hh:mm}
    523     21.6666666666667,        !- Value Until Time 11
    524     12:00,                   !- Time 12 {hh:mm}
    525     21.6666666666667,        !- Value Until Time 12
    526     13:00,                   !- Time 13 {hh:mm}
    527     21.6666666666667,        !- Value Until Time 13
    528     14:00,                   !- Time 14 {hh:mm}
    529     21.6666666666667,        !- Value Until Time 14
    530     15:00,                   !- Time 15 {hh:mm}
    531     21.6666666666667,        !- Value Until Time 15
    532     16:00,                   !- Time 16 {hh:mm}
    533     21.6666666666667,        !- Value Until Time 16
    534     17:00,                   !- Time 17 {hh:mm}
    535     21.6666666666667,        !- Value Until Time 17
    536     18:00,                   !- Time 18 {hh:mm}
    537     21.6666666666667,        !- Value Until Time 18
    538     19:00,                   !- Time 19 {hh:mm}
    539     21.6666666666667,        !- Value Until Time 19
    540     20:00,                   !- Time 20 {hh:mm}
    541     21.6666666666667,        !- Value Until Time 20
    542     21:00,                   !- Time 21 {hh:mm}
    543     21.6666666666667,        !- Value Until Time 21
    544     22:00,                   !- Time 22 {hh:mm}
    545     21.6666666666667,        !- Value Until Time 22
    546     23:00,                   !- Time 23 {hh:mm}
    547     21.6666666666667,        !- Value Until Time 23
    548     24:00,                   !- Time 24 {hh:mm}
    549     21.6666666666667;        !- Value Until Time 24
    550 
    551 Schedule:Day:Interval,
    552     HeatingSetPointSchedule03d,  !- Name
    553     Temperature 9,           !- Schedule Type Limits Name
    554     No,                      !- Interpolate to Timestep
    555     01:00,                   !- Time 1 {hh:mm}
    556     21.6666666666667,        !- Value Until Time 1
    557     02:00,                   !- Time 2 {hh:mm}
    558     21.6666666666667,        !- Value Until Time 2
    559     03:00,                   !- Time 3 {hh:mm}
    560     21.6666666666667,        !- Value Until Time 3
    561     04:00,                   !- Time 4 {hh:mm}
    562     21.6666666666667,        !- Value Until Time 4
    563     05:00,                   !- Time 5 {hh:mm}
    564     21.6666666666667,        !- Value Until Time 5
    565     06:00,                   !- Time 6 {hh:mm}
    566     21.6666666666667,        !- Value Until Time 6
    567     07:00,                   !- Time 7 {hh:mm}
    568     21.6666666666667,        !- Value Until Time 7
    569     08:00,                   !- Time 8 {hh:mm}
    570     21.6666666666667,        !- Value Until Time 8
    571     09:00,                   !- Time 9 {hh:mm}
    572     21.6666666666667,        !- Value Until Time 9
    573     10:00,                   !- Time 10 {hh:mm}
    574     21.6666666666667,        !- Value Until Time 10
    575     11:00,                   !- Time 11 {hh:mm}
    576     21.6666666666667,        !- Value Until Time 11
    577     12:00,                   !- Time 12 {hh:mm}
    578     21.6666666666667,        !- Value Until Time 12
    579     13:00,                   !- Time 13 {hh:mm}
    580     21.6666666666667,        !- Value Until Time 13
    581     14:00,                   !- Time 14 {hh:mm}
    582     21.6666666666667,        !- Value Until Time 14
    583     15:00,                   !- Time 15 {hh:mm}
    584     21.6666666666667,        !- Value Until Time 15
    585     16:00,                   !- Time 16 {hh:mm}
    586     21.6666666666667,        !- Value Until Time 16
    587     17:00,                   !- Time 17 {hh:mm}
    588     21.6666666666667,        !- Value Until Time 17
    589     18:00,                   !- Time 18 {hh:mm}
    590     21.6666666666667,        !- Value Until Time 18
    591     19:00,                   !- Time 19 {hh:mm}
    592     21.6666666666667,        !- Value Until Time 19
    593     20:00,                   !- Time 20 {hh:mm}
    594     21.6666666666667,        !- Value Until Time 20
    595     21:00,                   !- Time 21 {hh:mm}
    596     21.6666666666667,        !- Value Until Time 21
    597     22:00,                   !- Time 22 {hh:mm}
    598     21.6666666666667,        !- Value Until Time 22
    599     23:00,                   !- Time 23 {hh:mm}
    600     21.6666666666667,        !- Value Until Time 23
    601     24:00,                   !- Time 24 {hh:mm}
    602     21.6666666666667;        !- Value Until Time 24
    603 
    604 Schedule:Day:Interval,
    605     HeatingSetPointSchedule04d,  !- Name
    606     Temperature 9,           !- Schedule Type Limits Name
    607     No,                      !- Interpolate to Timestep
    608     01:00,                   !- Time 1 {hh:mm}
    609     21.6666666666667,        !- Value Until Time 1
    610     02:00,                   !- Time 2 {hh:mm}
    611     21.6666666666667,        !- Value Until Time 2
    612     03:00,                   !- Time 3 {hh:mm}
    613     21.6666666666667,        !- Value Until Time 3
    614     04:00,                   !- Time 4 {hh:mm}
    615     21.6666666666667,        !- Value Until Time 4
    616     05:00,                   !- Time 5 {hh:mm}
    617     21.6666666666667,        !- Value Until Time 5
    618     06:00,                   !- Time 6 {hh:mm}
    619     21.6666666666667,        !- Value Until Time 6
    620     07:00,                   !- Time 7 {hh:mm}
    621     21.6666666666667,        !- Value Until Time 7
    622     08:00,                   !- Time 8 {hh:mm}
    623     21.6666666666667,        !- Value Until Time 8
    624     09:00,                   !- Time 9 {hh:mm}
    625     21.6666666666667,        !- Value Until Time 9
    626     10:00,                   !- Time 10 {hh:mm}
    627     21.6666666666667,        !- Value Until Time 10
    628     11:00,                   !- Time 11 {hh:mm}
    629     21.6666666666667,        !- Value Until Time 11
    630     12:00,                   !- Time 12 {hh:mm}
    631     21.6666666666667,        !- Value Until Time 12
    632     13:00,                   !- Time 13 {hh:mm}
    633     21.6666666666667,        !- Value Until Time 13
    634     14:00,                   !- Time 14 {hh:mm}
    635     21.6666666666667,        !- Value Until Time 14
    636     15:00,                   !- Time 15 {hh:mm}
    637     21.6666666666667,        !- Value Until Time 15
    638     16:00,                   !- Time 16 {hh:mm}
    639     21.6666666666667,        !- Value Until Time 16
    640     17:00,                   !- Time 17 {hh:mm}
    641     21.6666666666667,        !- Value Until Time 17
    642     18:00,                   !- Time 18 {hh:mm}
    643     21.6666666666667,        !- Value Until Time 18
    644     19:00,                   !- Time 19 {hh:mm}
    645     21.6666666666667,        !- Value Until Time 19
    646     20:00,                   !- Time 20 {hh:mm}
    647     21.6666666666667,        !- Value Until Time 20
    648     21:00,                   !- Time 21 {hh:mm}
    649     21.6666666666667,        !- Value Until Time 21
    650     22:00,                   !- Time 22 {hh:mm}
    651     21.6666666666667,        !- Value Until Time 22
    652     23:00,                   !- Time 23 {hh:mm}
    653     21.6666666666667,        !- Value Until Time 23
    654     24:00,                   !- Time 24 {hh:mm}
    655     21.6666666666667;        !- Value Until Time 24
    656 
    657 Schedule:Day:Interval,
    658     HeatingSetPointSchedule05d,  !- Name
    659     Temperature 9,           !- Schedule Type Limits Name
    660     No,                      !- Interpolate to Timestep
    661     01:00,                   !- Time 1 {hh:mm}
    662     21.6666666666667,        !- Value Until Time 1
    663     02:00,                   !- Time 2 {hh:mm}
    664     21.6666666666667,        !- Value Until Time 2
    665     03:00,                   !- Time 3 {hh:mm}
    666     21.6666666666667,        !- Value Until Time 3
    667     04:00,                   !- Time 4 {hh:mm}
    668     21.6666666666667,        !- Value Until Time 4
    669     05:00,                   !- Time 5 {hh:mm}
    670     21.6666666666667,        !- Value Until Time 5
    671     06:00,                   !- Time 6 {hh:mm}
    672     21.6666666666667,        !- Value Until Time 6
    673     07:00,                   !- Time 7 {hh:mm}
    674     21.6666666666667,        !- Value Until Time 7
    675     08:00,                   !- Time 8 {hh:mm}
    676     21.6666666666667,        !- Value Until Time 8
    677     09:00,                   !- Time 9 {hh:mm}
    678     21.6666666666667,        !- Value Until Time 9
    679     10:00,                   !- Time 10 {hh:mm}
    680     21.6666666666667,        !- Value Until Time 10
    681     11:00,                   !- Time 11 {hh:mm}
    682     21.6666666666667,        !- Value Until Time 11
    683     12:00,                   !- Time 12 {hh:mm}
    684     21.6666666666667,        !- Value Until Time 12
    685     13:00,                   !- Time 13 {hh:mm}
    686     21.6666666666667,        !- Value Until Time 13
    687     14:00,                   !- Time 14 {hh:mm}
    688     21.6666666666667,        !- Value Until Time 14
    689     15:00,                   !- Time 15 {hh:mm}
    690     21.6666666666667,        !- Value Until Time 15
    691     16:00,                   !- Time 16 {hh:mm}
    692     21.6666666666667,        !- Value Until Time 16
    693     17:00,                   !- Time 17 {hh:mm}
    694     21.6666666666667,        !- Value Until Time 17
    695     18:00,                   !- Time 18 {hh:mm}
    696     21.6666666666667,        !- Value Until Time 18
    697     19:00,                   !- Time 19 {hh:mm}
    698     21.6666666666667,        !- Value Until Time 19
    699     20:00,                   !- Time 20 {hh:mm}
    700     21.6666666666667,        !- Value Until Time 20
    701     21:00,                   !- Time 21 {hh:mm}
    702     21.6666666666667,        !- Value Until Time 21
    703     22:00,                   !- Time 22 {hh:mm}
    704     21.6666666666667,        !- Value Until Time 22
    705     23:00,                   !- Time 23 {hh:mm}
    706     21.6666666666667,        !- Value Until Time 23
    707     24:00,                   !- Time 24 {hh:mm}
    708     21.6666666666667;        !- Value Until Time 24
    709 
    710 Schedule:Day:Interval,
    711     HeatingSetPointSchedule06d,  !- Name
    712     Temperature 9,           !- Schedule Type Limits Name
    713     No,                      !- Interpolate to Timestep
    714     01:00,                   !- Time 1 {hh:mm}
    715     21.6666666666667,        !- Value Until Time 1
    716     02:00,                   !- Time 2 {hh:mm}
    717     21.6666666666667,        !- Value Until Time 2
    718     03:00,                   !- Time 3 {hh:mm}
    719     21.6666666666667,        !- Value Until Time 3
    720     04:00,                   !- Time 4 {hh:mm}
    721     21.6666666666667,        !- Value Until Time 4
    722     05:00,                   !- Time 5 {hh:mm}
    723     21.6666666666667,        !- Value Until Time 5
    724     06:00,                   !- Time 6 {hh:mm}
    725     21.6666666666667,        !- Value Until Time 6
    726     07:00,                   !- Time 7 {hh:mm}
    727     21.6666666666667,        !- Value Until Time 7
    728     08:00,                   !- Time 8 {hh:mm}
    729     21.6666666666667,        !- Value Until Time 8
    730     09:00,                   !- Time 9 {hh:mm}
    731     21.6666666666667,        !- Value Until Time 9
    732     10:00,                   !- Time 10 {hh:mm}
    733     21.6666666666667,        !- Value Until Time 10
    734     11:00,                   !- Time 11 {hh:mm}
    735     21.6666666666667,        !- Value Until Time 11
    736     12:00,                   !- Time 12 {hh:mm}
    737     21.6666666666667,        !- Value Until Time 12
    738     13:00,                   !- Time 13 {hh:mm}
    739     21.6666666666667,        !- Value Until Time 13
    740     14:00,                   !- Time 14 {hh:mm}
    741     21.6666666666667,        !- Value Until Time 14
    742     15:00,                   !- Time 15 {hh:mm}
    743     21.6666666666667,        !- Value Until Time 15
    744     16:00,                   !- Time 16 {hh:mm}
    745     21.6666666666667,        !- Value Until Time 16
    746     17:00,                   !- Time 17 {hh:mm}
    747     21.6666666666667,        !- Value Until Time 17
    748     18:00,                   !- Time 18 {hh:mm}
    749     21.6666666666667,        !- Value Until Time 18
    750     19:00,                   !- Time 19 {hh:mm}
    751     21.6666666666667,        !- Value Until Time 19
    752     20:00,                   !- Time 20 {hh:mm}
    753     21.6666666666667,        !- Value Until Time 20
    754     21:00,                   !- Time 21 {hh:mm}
    755     21.6666666666667,        !- Value Until Time 21
    756     22:00,                   !- Time 22 {hh:mm}
    757     21.6666666666667,        !- Value Until Time 22
    758     23:00,                   !- Time 23 {hh:mm}
    759     21.6666666666667,        !- Value Until Time 23
    760     24:00,                   !- Time 24 {hh:mm}
    761     21.6666666666667;        !- Value Until Time 24
    762 
    763 Schedule:Day:Interval,
    764     HeatingSetPointSchedule07d,  !- Name
    765     Temperature 9,           !- Schedule Type Limits Name
    766     No,                      !- Interpolate to Timestep
    767     01:00,                   !- Time 1 {hh:mm}
    768     21.6666666666667,        !- Value Until Time 1
    769     02:00,                   !- Time 2 {hh:mm}
    770     21.6666666666667,        !- Value Until Time 2
    771     03:00,                   !- Time 3 {hh:mm}
    772     21.6666666666667,        !- Value Until Time 3
    773     04:00,                   !- Time 4 {hh:mm}
    774     21.6666666666667,        !- Value Until Time 4
    775     05:00,                   !- Time 5 {hh:mm}
    776     21.6666666666667,        !- Value Until Time 5
    777     06:00,                   !- Time 6 {hh:mm}
    778     21.6666666666667,        !- Value Until Time 6
    779     07:00,                   !- Time 7 {hh:mm}
    780     21.6666666666667,        !- Value Until Time 7
    781     08:00,                   !- Time 8 {hh:mm}
    782     21.6666666666667,        !- Value Until Time 8
    783     09:00,                   !- Time 9 {hh:mm}
    784     21.6666666666667,        !- Value Until Time 9
    785     10:00,                   !- Time 10 {hh:mm}
    786     21.6666666666667,        !- Value Until Time 10
    787     11:00,                   !- Time 11 {hh:mm}
    788     21.6666666666667,        !- Value Until Time 11
    789     12:00,                   !- Time 12 {hh:mm}
    790     21.6666666666667,        !- Value Until Time 12
    791     13:00,                   !- Time 13 {hh:mm}
    792     21.6666666666667,        !- Value Until Time 13
    793     14:00,                   !- Time 14 {hh:mm}
    794     21.6666666666667,        !- Value Until Time 14
    795     15:00,                   !- Time 15 {hh:mm}
    796     21.6666666666667,        !- Value Until Time 15
    797     16:00,                   !- Time 16 {hh:mm}
    798     21.6666666666667,        !- Value Until Time 16
    799     17:00,                   !- Time 17 {hh:mm}
    800     21.6666666666667,        !- Value Until Time 17
    801     18:00,                   !- Time 18 {hh:mm}
    802     21.6666666666667,        !- Value Until Time 18
    803     19:00,                   !- Time 19 {hh:mm}
    804     21.6666666666667,        !- Value Until Time 19
    805     20:00,                   !- Time 20 {hh:mm}
    806     21.6666666666667,        !- Value Until Time 20
    807     21:00,                   !- Time 21 {hh:mm}
    808     21.6666666666667,        !- Value Until Time 21
    809     22:00,                   !- Time 22 {hh:mm}
    810     21.6666666666667,        !- Value Until Time 22
    811     23:00,                   !- Time 23 {hh:mm}
    812     21.6666666666667,        !- Value Until Time 23
    813     24:00,                   !- Time 24 {hh:mm}
    814     21.6666666666667;        !- Value Until Time 24
    815 
    816 Schedule:Day:Interval,
    817     HeatingSetPointSchedule08d,  !- Name
    818     Temperature 9,           !- Schedule Type Limits Name
    819     No,                      !- Interpolate to Timestep
    820     01:00,                   !- Time 1 {hh:mm}
    821     -1000,                   !- Value Until Time 1
    822     02:00,                   !- Time 2 {hh:mm}
    823     -1000,                   !- Value Until Time 2
    824     03:00,                   !- Time 3 {hh:mm}
    825     -1000,                   !- Value Until Time 3
    826     04:00,                   !- Time 4 {hh:mm}
    827     -1000,                   !- Value Until Time 4
    828     05:00,                   !- Time 5 {hh:mm}
    829     -1000,                   !- Value Until Time 5
    830     06:00,                   !- Time 6 {hh:mm}
    831     -1000,                   !- Value Until Time 6
    832     07:00,                   !- Time 7 {hh:mm}
    833     -1000,                   !- Value Until Time 7
    834     08:00,                   !- Time 8 {hh:mm}
    835     -1000,                   !- Value Until Time 8
    836     09:00,                   !- Time 9 {hh:mm}
    837     -1000,                   !- Value Until Time 9
    838     10:00,                   !- Time 10 {hh:mm}
    839     -1000,                   !- Value Until Time 10
    840     11:00,                   !- Time 11 {hh:mm}
    841     -1000,                   !- Value Until Time 11
    842     12:00,                   !- Time 12 {hh:mm}
    843     -1000,                   !- Value Until Time 12
    844     13:00,                   !- Time 13 {hh:mm}
    845     -1000,                   !- Value Until Time 13
    846     14:00,                   !- Time 14 {hh:mm}
    847     -1000,                   !- Value Until Time 14
    848     15:00,                   !- Time 15 {hh:mm}
    849     -1000,                   !- Value Until Time 15
    850     16:00,                   !- Time 16 {hh:mm}
    851     -1000,                   !- Value Until Time 16
    852     17:00,                   !- Time 17 {hh:mm}
    853     -1000,                   !- Value Until Time 17
    854     18:00,                   !- Time 18 {hh:mm}
    855     -1000,                   !- Value Until Time 18
    856     19:00,                   !- Time 19 {hh:mm}
    857     -1000,                   !- Value Until Time 19
    858     20:00,                   !- Time 20 {hh:mm}
    859     -1000,                   !- Value Until Time 20
    860     21:00,                   !- Time 21 {hh:mm}
    861     -1000,                   !- Value Until Time 21
    862     22:00,                   !- Time 22 {hh:mm}
    863     -1000,                   !- Value Until Time 22
    864     23:00,                   !- Time 23 {hh:mm}
    865     -1000,                   !- Value Until Time 23
    866     24:00,                   !- Time 24 {hh:mm}
    867     -1000;                   !- Value Until Time 24
    868 
    869 Schedule:Day:Interval,
    870     HeatingSetPointSchedule09d,  !- Name
    871     Temperature 9,           !- Schedule Type Limits Name
    872     No,                      !- Interpolate to Timestep
    873     01:00,                   !- Time 1 {hh:mm}
    874     21.6666666666667,        !- Value Until Time 1
    875     02:00,                   !- Time 2 {hh:mm}
    876     21.6666666666667,        !- Value Until Time 2
    877     03:00,                   !- Time 3 {hh:mm}
    878     21.6666666666667,        !- Value Until Time 3
    879     04:00,                   !- Time 4 {hh:mm}
    880     21.6666666666667,        !- Value Until Time 4
    881     05:00,                   !- Time 5 {hh:mm}
    882     21.6666666666667,        !- Value Until Time 5
    883     06:00,                   !- Time 6 {hh:mm}
    884     21.6666666666667,        !- Value Until Time 6
    885     07:00,                   !- Time 7 {hh:mm}
    886     21.6666666666667,        !- Value Until Time 7
    887     08:00,                   !- Time 8 {hh:mm}
    888     21.6666666666667,        !- Value Until Time 8
    889     09:00,                   !- Time 9 {hh:mm}
    890     21.6666666666667,        !- Value Until Time 9
    891     10:00,                   !- Time 10 {hh:mm}
    892     21.6666666666667,        !- Value Until Time 10
    893     11:00,                   !- Time 11 {hh:mm}
    894     21.6666666666667,        !- Value Until Time 11
    895     12:00,                   !- Time 12 {hh:mm}
    896     21.6666666666667,        !- Value Until Time 12
    897     13:00,                   !- Time 13 {hh:mm}
    898     21.6666666666667,        !- Value Until Time 13
    899     14:00,                   !- Time 14 {hh:mm}
    900     21.6666666666667,        !- Value Until Time 14
    901     15:00,                   !- Time 15 {hh:mm}
    902     21.6666666666667,        !- Value Until Time 15
    903     16:00,                   !- Time 16 {hh:mm}
    904     21.6666666666667,        !- Value Until Time 16
    905     17:00,                   !- Time 17 {hh:mm}
    906     21.6666666666667,        !- Value Until Time 17
    907     18:00,                   !- Time 18 {hh:mm}
    908     21.6666666666667,        !- Value Until Time 18
    909     19:00,                   !- Time 19 {hh:mm}
    910     21.6666666666667,        !- Value Until Time 19
    911     20:00,                   !- Time 20 {hh:mm}
    912     21.6666666666667,        !- Value Until Time 20
    913     21:00,                   !- Time 21 {hh:mm}
    914     21.6666666666667,        !- Value Until Time 21
    915     22:00,                   !- Time 22 {hh:mm}
    916     21.6666666666667,        !- Value Until Time 22
    917     23:00,                   !- Time 23 {hh:mm}
    918     21.6666666666667,        !- Value Until Time 23
    919     24:00,                   !- Time 24 {hh:mm}
    920     21.6666666666667;        !- Value Until Time 24
    921 
    922 Schedule:Day:Interval,
    923     HeatingSetPointSchedule10d,  !- Name
    924     Temperature 9,           !- Schedule Type Limits Name
    925     No,                      !- Interpolate to Timestep
    926     01:00,                   !- Time 1 {hh:mm}
    927     21.6666666666667,        !- Value Until Time 1
    928     02:00,                   !- Time 2 {hh:mm}
    929     21.6666666666667,        !- Value Until Time 2
    930     03:00,                   !- Time 3 {hh:mm}
    931     21.6666666666667,        !- Value Until Time 3
    932     04:00,                   !- Time 4 {hh:mm}
    933     21.6666666666667,        !- Value Until Time 4
    934     05:00,                   !- Time 5 {hh:mm}
    935     21.6666666666667,        !- Value Until Time 5
    936     06:00,                   !- Time 6 {hh:mm}
    937     21.6666666666667,        !- Value Until Time 6
    938     07:00,                   !- Time 7 {hh:mm}
    939     21.6666666666667,        !- Value Until Time 7
    940     08:00,                   !- Time 8 {hh:mm}
    941     21.6666666666667,        !- Value Until Time 8
    942     09:00,                   !- Time 9 {hh:mm}
    943     21.6666666666667,        !- Value Until Time 9
    944     10:00,                   !- Time 10 {hh:mm}
    945     21.6666666666667,        !- Value Until Time 10
    946     11:00,                   !- Time 11 {hh:mm}
    947     21.6666666666667,        !- Value Until Time 11
    948     12:00,                   !- Time 12 {hh:mm}
    949     21.6666666666667,        !- Value Until Time 12
    950     13:00,                   !- Time 13 {hh:mm}
    951     21.6666666666667,        !- Value Until Time 13
    952     14:00,                   !- Time 14 {hh:mm}
    953     21.6666666666667,        !- Value Until Time 14
    954     15:00,                   !- Time 15 {hh:mm}
    955     21.6666666666667,        !- Value Until Time 15
    956     16:00,                   !- Time 16 {hh:mm}
    957     21.6666666666667,        !- Value Until Time 16
    958     17:00,                   !- Time 17 {hh:mm}
    959     21.6666666666667,        !- Value Until Time 17
    960     18:00,                   !- Time 18 {hh:mm}
    961     21.6666666666667,        !- Value Until Time 18
    962     19:00,                   !- Time 19 {hh:mm}
    963     21.6666666666667,        !- Value Until Time 19
    964     20:00,                   !- Time 20 {hh:mm}
    965     21.6666666666667,        !- Value Until Time 20
    966     21:00,                   !- Time 21 {hh:mm}
    967     21.6666666666667,        !- Value Until Time 21
    968     22:00,                   !- Time 22 {hh:mm}
    969     21.6666666666667,        !- Value Until Time 22
    970     23:00,                   !- Time 23 {hh:mm}
    971     21.6666666666667,        !- Value Until Time 23
    972     24:00,                   !- Time 24 {hh:mm}
    973     21.6666666666667;        !- Value Until Time 24
    974 
    975 Schedule:Day:Interval,
    976     HeatingSetPointSchedule11d,  !- Name
    977     Temperature 9,           !- Schedule Type Limits Name
    978     No,                      !- Interpolate to Timestep
    979     01:00,                   !- Time 1 {hh:mm}
    980     21.6666666666667,        !- Value Until Time 1
    981     02:00,                   !- Time 2 {hh:mm}
    982     21.6666666666667,        !- Value Until Time 2
    983     03:00,                   !- Time 3 {hh:mm}
    984     21.6666666666667,        !- Value Until Time 3
    985     04:00,                   !- Time 4 {hh:mm}
    986     21.6666666666667,        !- Value Until Time 4
    987     05:00,                   !- Time 5 {hh:mm}
    988     21.6666666666667,        !- Value Until Time 5
    989     06:00,                   !- Time 6 {hh:mm}
    990     21.6666666666667,        !- Value Until Time 6
    991     07:00,                   !- Time 7 {hh:mm}
    992     21.6666666666667,        !- Value Until Time 7
    993     08:00,                   !- Time 8 {hh:mm}
    994     21.6666666666667,        !- Value Until Time 8
    995     09:00,                   !- Time 9 {hh:mm}
    996     21.6666666666667,        !- Value Until Time 9
    997     10:00,                   !- Time 10 {hh:mm}
    998     21.6666666666667,        !- Value Until Time 10
    999     11:00,                   !- Time 11 {hh:mm}
   1000     21.6666666666667,        !- Value Until Time 11
   1001     12:00,                   !- Time 12 {hh:mm}
   1002     21.6666666666667,        !- Value Until Time 12
   1003     13:00,                   !- Time 13 {hh:mm}
   1004     21.6666666666667,        !- Value Until Time 13
   1005     14:00,                   !- Time 14 {hh:mm}
   1006     21.6666666666667,        !- Value Until Time 14
   1007     15:00,                   !- Time 15 {hh:mm}
   1008     21.6666666666667,        !- Value Until Time 15
   1009     16:00,                   !- Time 16 {hh:mm}
   1010     21.6666666666667,        !- Value Until Time 16
   1011     17:00,                   !- Time 17 {hh:mm}
   1012     21.6666666666667,        !- Value Until Time 17
   1013     18:00,                   !- Time 18 {hh:mm}
   1014     21.6666666666667,        !- Value Until Time 18
   1015     19:00,                   !- Time 19 {hh:mm}
   1016     21.6666666666667,        !- Value Until Time 19
   1017     20:00,                   !- Time 20 {hh:mm}
   1018     21.6666666666667,        !- Value Until Time 20
   1019     21:00,                   !- Time 21 {hh:mm}
   1020     21.6666666666667,        !- Value Until Time 21
   1021     22:00,                   !- Time 22 {hh:mm}
   1022     21.6666666666667,        !- Value Until Time 22
   1023     23:00,                   !- Time 23 {hh:mm}
   1024     21.6666666666667,        !- Value Until Time 23
   1025     24:00,                   !- Time 24 {hh:mm}
   1026     21.6666666666667;        !- Value Until Time 24
   1027 
   1028 Schedule:Day:Interval,
   1029     HeatingSetPointSchedule12d,  !- Name
   1030     Temperature 9,           !- Schedule Type Limits Name
   1031     No,                      !- Interpolate to Timestep
   1032     01:00,                   !- Time 1 {hh:mm}
   1033     21.6666666666667,        !- Value Until Time 1
   1034     02:00,                   !- Time 2 {hh:mm}
   1035     21.6666666666667,        !- Value Until Time 2
   1036     03:00,                   !- Time 3 {hh:mm}
   1037     21.6666666666667,        !- Value Until Time 3
   1038     04:00,                   !- Time 4 {hh:mm}
   1039     21.6666666666667,        !- Value Until Time 4
   1040     05:00,                   !- Time 5 {hh:mm}
   1041     21.6666666666667,        !- Value Until Time 5
   1042     06:00,                   !- Time 6 {hh:mm}
   1043     21.6666666666667,        !- Value Until Time 6
   1044     07:00,                   !- Time 7 {hh:mm}
   1045     21.6666666666667,        !- Value Until Time 7
   1046     08:00,                   !- Time 8 {hh:mm}
   1047     21.6666666666667,        !- Value Until Time 8
   1048     09:00,                   !- Time 9 {hh:mm}
   1049     21.6666666666667,        !- Value Until Time 9
   1050     10:00,                   !- Time 10 {hh:mm}
   1051     21.6666666666667,        !- Value Until Time 10
   1052     11:00,                   !- Time 11 {hh:mm}
   1053     21.6666666666667,        !- Value Until Time 11
   1054     12:00,                   !- Time 12 {hh:mm}
   1055     21.6666666666667,        !- Value Until Time 12
   1056     13:00,                   !- Time 13 {hh:mm}
   1057     21.6666666666667,        !- Value Until Time 13
   1058     14:00,                   !- Time 14 {hh:mm}
   1059     21.6666666666667,        !- Value Until Time 14
   1060     15:00,                   !- Time 15 {hh:mm}
   1061     21.6666666666667,        !- Value Until Time 15
   1062     16:00,                   !- Time 16 {hh:mm}
   1063     21.6666666666667,        !- Value Until Time 16
   1064     17:00,                   !- Time 17 {hh:mm}
   1065     21.6666666666667,        !- Value Until Time 17
   1066     18:00,                   !- Time 18 {hh:mm}
   1067     21.6666666666667,        !- Value Until Time 18
   1068     19:00,                   !- Time 19 {hh:mm}
   1069     21.6666666666667,        !- Value Until Time 19
   1070     20:00,                   !- Time 20 {hh:mm}
   1071     21.6666666666667,        !- Value Until Time 20
   1072     21:00,                   !- Time 21 {hh:mm}
   1073     21.6666666666667,        !- Value Until Time 21
   1074     22:00,                   !- Time 22 {hh:mm}
   1075     21.6666666666667,        !- Value Until Time 22
   1076     23:00,                   !- Time 23 {hh:mm}
   1077     21.6666666666667,        !- Value Until Time 23
   1078     24:00,                   !- Time 24 {hh:mm}
   1079     21.6666666666667;        !- Value Until Time 24
   1080 
   1081 Schedule:Day:Interval,
   1082     Schedule Day 214,        !- Name
   1083     Temperature 9,           !- Schedule Type Limits Name
   1084     No,                      !- Interpolate to Timestep
   1085     24:00,                   !- Time 1 {hh:mm}
   1086     0;                       !- Value Until Time 1
   1087 
   1088 Schedule:Day:Interval,
   1089     HeatingSetPointScheduleSummer,  !- Name
   1090     Temperature 9,           !- Schedule Type Limits Name
   1091     No,                      !- Interpolate to Timestep
   1092     01:00,                   !- Time 1 {hh:mm}
   1093     21.6666666666667,        !- Value Until Time 1
   1094     02:00,                   !- Time 2 {hh:mm}
   1095     21.6666666666667,        !- Value Until Time 2
   1096     03:00,                   !- Time 3 {hh:mm}
   1097     21.6666666666667,        !- Value Until Time 3
   1098     04:00,                   !- Time 4 {hh:mm}
   1099     21.6666666666667,        !- Value Until Time 4
   1100     05:00,                   !- Time 5 {hh:mm}
   1101     21.6666666666667,        !- Value Until Time 5
   1102     06:00,                   !- Time 6 {hh:mm}
   1103     21.6666666666667,        !- Value Until Time 6
   1104     07:00,                   !- Time 7 {hh:mm}
   1105     21.6666666666667,        !- Value Until Time 7
   1106     08:00,                   !- Time 8 {hh:mm}
   1107     21.6666666666667,        !- Value Until Time 8
   1108     09:00,                   !- Time 9 {hh:mm}
   1109     21.6666666666667,        !- Value Until Time 9
   1110     10:00,                   !- Time 10 {hh:mm}
   1111     21.6666666666667,        !- Value Until Time 10
   1112     11:00,                   !- Time 11 {hh:mm}
   1113     21.6666666666667,        !- Value Until Time 11
   1114     12:00,                   !- Time 12 {hh:mm}
   1115     21.6666666666667,        !- Value Until Time 12
   1116     13:00,                   !- Time 13 {hh:mm}
   1117     21.6666666666667,        !- Value Until Time 13
   1118     14:00,                   !- Time 14 {hh:mm}
   1119     21.6666666666667,        !- Value Until Time 14
   1120     15:00,                   !- Time 15 {hh:mm}
   1121     21.6666666666667,        !- Value Until Time 15
   1122     16:00,                   !- Time 16 {hh:mm}
   1123     21.6666666666667,        !- Value Until Time 16
   1124     17:00,                   !- Time 17 {hh:mm}
   1125     21.6666666666667,        !- Value Until Time 17
   1126     18:00,                   !- Time 18 {hh:mm}
   1127     21.6666666666667,        !- Value Until Time 18
   1128     19:00,                   !- Time 19 {hh:mm}
   1129     21.6666666666667,        !- Value Until Time 19
   1130     20:00,                   !- Time 20 {hh:mm}
   1131     21.6666666666667,        !- Value Until Time 20
   1132     21:00,                   !- Time 21 {hh:mm}
   1133     21.6666666666667,        !- Value Until Time 21
   1134     22:00,                   !- Time 22 {hh:mm}
   1135     21.6666666666667,        !- Value Until Time 22
   1136     23:00,                   !- Time 23 {hh:mm}
   1137     21.6666666666667,        !- Value Until Time 23
   1138     24:00,                   !- Time 24 {hh:mm}
   1139     21.6666666666667;        !- Value Until Time 24
   1140 
   1141 Schedule:Day:Interval,
   1142     HeatingSetPointScheduleWinter,  !- Name
   1143     Temperature 9,           !- Schedule Type Limits Name
   1144     No,                      !- Interpolate to Timestep
   1145     01:00,                   !- Time 1 {hh:mm}
   1146     21.6666666666667,        !- Value Until Time 1
   1147     02:00,                   !- Time 2 {hh:mm}
   1148     21.6666666666667,        !- Value Until Time 2
   1149     03:00,                   !- Time 3 {hh:mm}
   1150     21.6666666666667,        !- Value Until Time 3
   1151     04:00,                   !- Time 4 {hh:mm}
   1152     21.6666666666667,        !- Value Until Time 4
   1153     05:00,                   !- Time 5 {hh:mm}
   1154     21.6666666666667,        !- Value Until Time 5
   1155     06:00,                   !- Time 6 {hh:mm}
   1156     21.6666666666667,        !- Value Until Time 6
   1157     07:00,                   !- Time 7 {hh:mm}
   1158     21.6666666666667,        !- Value Until Time 7
   1159     08:00,                   !- Time 8 {hh:mm}
   1160     21.6666666666667,        !- Value Until Time 8
   1161     09:00,                   !- Time 9 {hh:mm}
   1162     21.6666666666667,        !- Value Until Time 9
   1163     10:00,                   !- Time 10 {hh:mm}
   1164     21.6666666666667,        !- Value Until Time 10
   1165     11:00,                   !- Time 11 {hh:mm}
   1166     21.6666666666667,        !- Value Until Time 11
   1167     12:00,                   !- Time 12 {hh:mm}
   1168     21.6666666666667,        !- Value Until Time 12
   1169     13:00,                   !- Time 13 {hh:mm}
   1170     21.6666666666667,        !- Value Until Time 13
   1171     14:00,                   !- Time 14 {hh:mm}
   1172     21.6666666666667,        !- Value Until Time 14
   1173     15:00,                   !- Time 15 {hh:mm}
   1174     21.6666666666667,        !- Value Until Time 15
   1175     16:00,                   !- Time 16 {hh:mm}
   1176     21.6666666666667,        !- Value Until Time 16
   1177     17:00,                   !- Time 17 {hh:mm}
   1178     21.6666666666667,        !- Value Until Time 17
   1179     18:00,                   !- Time 18 {hh:mm}
   1180     21.6666666666667,        !- Value Until Time 18
   1181     19:00,                   !- Time 19 {hh:mm}
   1182     21.6666666666667,        !- Value Until Time 19
   1183     20:00,                   !- Time 20 {hh:mm}
   1184     21.6666666666667,        !- Value Until Time 20
   1185     21:00,                   !- Time 21 {hh:mm}
   1186     21.6666666666667,        !- Value Until Time 21
   1187     22:00,                   !- Time 22 {hh:mm}
   1188     21.6666666666667,        !- Value Until Time 22
   1189     23:00,                   !- Time 23 {hh:mm}
   1190     21.6666666666667,        !- Value Until Time 23
   1191     24:00,                   !- Time 24 {hh:mm}
   1192     21.6666666666667;        !- Value Until Time 24
   1193 
   1194 Schedule:Day:Interval,
   1195     CoolingSetPointSchedule01d,  !- Name
   1196     Temperature 10,          !- Schedule Type Limits Name
   1197     No,                      !- Interpolate to Timestep
   1198     01:00,                   !- Time 1 {hh:mm}
   1199     1000,                    !- Value Until Time 1
   1200     02:00,                   !- Time 2 {hh:mm}
   1201     1000,                    !- Value Until Time 2
   1202     03:00,                   !- Time 3 {hh:mm}
   1203     1000,                    !- Value Until Time 3
   1204     04:00,                   !- Time 4 {hh:mm}
   1205     1000,                    !- Value Until Time 4
   1206     05:00,                   !- Time 5 {hh:mm}
   1207     1000,                    !- Value Until Time 5
   1208     06:00,                   !- Time 6 {hh:mm}
   1209     1000,                    !- Value Until Time 6
   1210     07:00,                   !- Time 7 {hh:mm}
   1211     1000,                    !- Value Until Time 7
   1212     08:00,                   !- Time 8 {hh:mm}
   1213     1000,                    !- Value Until Time 8
   1214     09:00,                   !- Time 9 {hh:mm}
   1215     1000,                    !- Value Until Time 9
   1216     10:00,                   !- Time 10 {hh:mm}
   1217     1000,                    !- Value Until Time 10
   1218     11:00,                   !- Time 11 {hh:mm}
   1219     1000,                    !- Value Until Time 11
   1220     12:00,                   !- Time 12 {hh:mm}
   1221     1000,                    !- Value Until Time 12
   1222     13:00,                   !- Time 13 {hh:mm}
   1223     1000,                    !- Value Until Time 13
   1224     14:00,                   !- Time 14 {hh:mm}
   1225     1000,                    !- Value Until Time 14
   1226     15:00,                   !- Time 15 {hh:mm}
   1227     1000,                    !- Value Until Time 15
   1228     16:00,                   !- Time 16 {hh:mm}
   1229     1000,                    !- Value Until Time 16
   1230     17:00,                   !- Time 17 {hh:mm}
   1231     1000,                    !- Value Until Time 17
   1232     18:00,                   !- Time 18 {hh:mm}
   1233     1000,                    !- Value Until Time 18
   1234     19:00,                   !- Time 19 {hh:mm}
   1235     1000,                    !- Value Until Time 19
   1236     20:00,                   !- Time 20 {hh:mm}
   1237     1000,                    !- Value Until Time 20
   1238     21:00,                   !- Time 21 {hh:mm}
   1239     1000,                    !- Value Until Time 21
   1240     22:00,                   !- Time 22 {hh:mm}
   1241     1000,                    !- Value Until Time 22
   1242     23:00,                   !- Time 23 {hh:mm}
   1243     1000,                    !- Value Until Time 23
   1244     24:00,                   !- Time 24 {hh:mm}
   1245     1000;                    !- Value Until Time 24
   1246 
   1247 Schedule:Day:Interval,
   1248     CoolingSetPointSchedule02d,  !- Name
   1249     Temperature 10,          !- Schedule Type Limits Name
   1250     No,                      !- Interpolate to Timestep
   1251     01:00,                   !- Time 1 {hh:mm}
   1252     1000,                    !- Value Until Time 1
   1253     02:00,                   !- Time 2 {hh:mm}
   1254     1000,                    !- Value Until Time 2
   1255     03:00,                   !- Time 3 {hh:mm}
   1256     1000,                    !- Value Until Time 3
   1257     04:00,                   !- Time 4 {hh:mm}
   1258     1000,                    !- Value Until Time 4
   1259     05:00,                   !- Time 5 {hh:mm}
   1260     1000,                    !- Value Until Time 5
   1261     06:00,                   !- Time 6 {hh:mm}
   1262     1000,                    !- Value Until Time 6
   1263     07:00,                   !- Time 7 {hh:mm}
   1264     1000,                    !- Value Until Time 7
   1265     08:00,                   !- Time 8 {hh:mm}
   1266     1000,                    !- Value Until Time 8
   1267     09:00,                   !- Time 9 {hh:mm}
   1268     1000,                    !- Value Until Time 9
   1269     10:00,                   !- Time 10 {hh:mm}
   1270     1000,                    !- Value Until Time 10
   1271     11:00,                   !- Time 11 {hh:mm}
   1272     1000,                    !- Value Until Time 11
   1273     12:00,                   !- Time 12 {hh:mm}
   1274     1000,                    !- Value Until Time 12
   1275     13:00,                   !- Time 13 {hh:mm}
   1276     1000,                    !- Value Until Time 13
   1277     14:00,                   !- Time 14 {hh:mm}
   1278     1000,                    !- Value Until Time 14
   1279     15:00,                   !- Time 15 {hh:mm}
   1280     1000,                    !- Value Until Time 15
   1281     16:00,                   !- Time 16 {hh:mm}
   1282     1000,                    !- Value Until Time 16
   1283     17:00,                   !- Time 17 {hh:mm}
   1284     1000,                    !- Value Until Time 17
   1285     18:00,                   !- Time 18 {hh:mm}
   1286     1000,                    !- Value Until Time 18
   1287     19:00,                   !- Time 19 {hh:mm}
   1288     1000,                    !- Value Until Time 19
   1289     20:00,                   !- Time 20 {hh:mm}
   1290     1000,                    !- Value Until Time 20
   1291     21:00,                   !- Time 21 {hh:mm}
   1292     1000,                    !- Value Until Time 21
   1293     22:00,                   !- Time 22 {hh:mm}
   1294     1000,                    !- Value Until Time 22
   1295     23:00,                   !- Time 23 {hh:mm}
   1296     1000,                    !- Value Until Time 23
   1297     24:00,                   !- Time 24 {hh:mm}
   1298     1000;                    !- Value Until Time 24
   1299 
   1300 Schedule:Day:Interval,
   1301     CoolingSetPointSchedule03d,  !- Name
   1302     Temperature 10,          !- Schedule Type Limits Name
   1303     No,                      !- Interpolate to Timestep
   1304     01:00,                   !- Time 1 {hh:mm}
   1305     1000,                    !- Value Until Time 1
   1306     02:00,                   !- Time 2 {hh:mm}
   1307     1000,                    !- Value Until Time 2
   1308     03:00,                   !- Time 3 {hh:mm}
   1309     1000,                    !- Value Until Time 3
   1310     04:00,                   !- Time 4 {hh:mm}
   1311     1000,                    !- Value Until Time 4
   1312     05:00,                   !- Time 5 {hh:mm}
   1313     1000,                    !- Value Until Time 5
   1314     06:00,                   !- Time 6 {hh:mm}
   1315     1000,                    !- Value Until Time 6
   1316     07:00,                   !- Time 7 {hh:mm}
   1317     1000,                    !- Value Until Time 7
   1318     08:00,                   !- Time 8 {hh:mm}
   1319     1000,                    !- Value Until Time 8
   1320     09:00,                   !- Time 9 {hh:mm}
   1321     1000,                    !- Value Until Time 9
   1322     10:00,                   !- Time 10 {hh:mm}
   1323     1000,                    !- Value Until Time 10
   1324     11:00,                   !- Time 11 {hh:mm}
   1325     1000,                    !- Value Until Time 11
   1326     12:00,                   !- Time 12 {hh:mm}
   1327     1000,                    !- Value Until Time 12
   1328     13:00,                   !- Time 13 {hh:mm}
   1329     1000,                    !- Value Until Time 13
   1330     14:00,                   !- Time 14 {hh:mm}
   1331     1000,                    !- Value Until Time 14
   1332     15:00,                   !- Time 15 {hh:mm}
   1333     1000,                    !- Value Until Time 15
   1334     16:00,                   !- Time 16 {hh:mm}
   1335     1000,                    !- Value Until Time 16
   1336     17:00,                   !- Time 17 {hh:mm}
   1337     1000,                    !- Value Until Time 17
   1338     18:00,                   !- Time 18 {hh:mm}
   1339     1000,                    !- Value Until Time 18
   1340     19:00,                   !- Time 19 {hh:mm}
   1341     1000,                    !- Value Until Time 19
   1342     20:00,                   !- Time 20 {hh:mm}
   1343     1000,                    !- Value Until Time 20
   1344     21:00,                   !- Time 21 {hh:mm}
   1345     1000,                    !- Value Until Time 21
   1346     22:00,                   !- Time 22 {hh:mm}
   1347     1000,                    !- Value Until Time 22
   1348     23:00,                   !- Time 23 {hh:mm}
   1349     1000,                    !- Value Until Time 23
   1350     24:00,                   !- Time 24 {hh:mm}
   1351     1000;                    !- Value Until Time 24
   1352 
   1353 Schedule:Day:Interval,
   1354     CoolingSetPointSchedule04d,  !- Name
   1355     Temperature 10,          !- Schedule Type Limits Name
   1356     No,                      !- Interpolate to Timestep
   1357     01:00,                   !- Time 1 {hh:mm}
   1358     1000,                    !- Value Until Time 1
   1359     02:00,                   !- Time 2 {hh:mm}
   1360     1000,                    !- Value Until Time 2
   1361     03:00,                   !- Time 3 {hh:mm}
   1362     1000,                    !- Value Until Time 3
   1363     04:00,                   !- Time 4 {hh:mm}
   1364     1000,                    !- Value Until Time 4
   1365     05:00,                   !- Time 5 {hh:mm}
   1366     1000,                    !- Value Until Time 5
   1367     06:00,                   !- Time 6 {hh:mm}
   1368     1000,                    !- Value Until Time 6
   1369     07:00,                   !- Time 7 {hh:mm}
   1370     1000,                    !- Value Until Time 7
   1371     08:00,                   !- Time 8 {hh:mm}
   1372     1000,                    !- Value Until Time 8
   1373     09:00,                   !- Time 9 {hh:mm}
   1374     1000,                    !- Value Until Time 9
   1375     10:00,                   !- Time 10 {hh:mm}
   1376     1000,                    !- Value Until Time 10
   1377     11:00,                   !- Time 11 {hh:mm}
   1378     1000,                    !- Value Until Time 11
   1379     12:00,                   !- Time 12 {hh:mm}
   1380     1000,                    !- Value Until Time 12
   1381     13:00,                   !- Time 13 {hh:mm}
   1382     1000,                    !- Value Until Time 13
   1383     14:00,                   !- Time 14 {hh:mm}
   1384     1000,                    !- Value Until Time 14
   1385     15:00,                   !- Time 15 {hh:mm}
   1386     1000,                    !- Value Until Time 15
   1387     16:00,                   !- Time 16 {hh:mm}
   1388     1000,                    !- Value Until Time 16
   1389     17:00,                   !- Time 17 {hh:mm}
   1390     1000,                    !- Value Until Time 17
   1391     18:00,                   !- Time 18 {hh:mm}
   1392     1000,                    !- Value Until Time 18
   1393     19:00,                   !- Time 19 {hh:mm}
   1394     1000,                    !- Value Until Time 19
   1395     20:00,                   !- Time 20 {hh:mm}
   1396     1000,                    !- Value Until Time 20
   1397     21:00,                   !- Time 21 {hh:mm}
   1398     1000,                    !- Value Until Time 21
   1399     22:00,                   !- Time 22 {hh:mm}
   1400     1000,                    !- Value Until Time 22
   1401     23:00,                   !- Time 23 {hh:mm}
   1402     1000,                    !- Value Until Time 23
   1403     24:00,                   !- Time 24 {hh:mm}
   1404     1000;                    !- Value Until Time 24
   1405 
   1406 Schedule:Day:Interval,
   1407     CoolingSetPointSchedule05d,  !- Name
   1408     Temperature 10,          !- Schedule Type Limits Name
   1409     No,                      !- Interpolate to Timestep
   1410     01:00,                   !- Time 1 {hh:mm}
   1411     1000,                    !- Value Until Time 1
   1412     02:00,                   !- Time 2 {hh:mm}
   1413     1000,                    !- Value Until Time 2
   1414     03:00,                   !- Time 3 {hh:mm}
   1415     1000,                    !- Value Until Time 3
   1416     04:00,                   !- Time 4 {hh:mm}
   1417     1000,                    !- Value Until Time 4
   1418     05:00,                   !- Time 5 {hh:mm}
   1419     1000,                    !- Value Until Time 5
   1420     06:00,                   !- Time 6 {hh:mm}
   1421     1000,                    !- Value Until Time 6
   1422     07:00,                   !- Time 7 {hh:mm}
   1423     1000,                    !- Value Until Time 7
   1424     08:00,                   !- Time 8 {hh:mm}
   1425     1000,                    !- Value Until Time 8
   1426     09:00,                   !- Time 9 {hh:mm}
   1427     1000,                    !- Value Until Time 9
   1428     10:00,                   !- Time 10 {hh:mm}
   1429     1000,                    !- Value Until Time 10
   1430     11:00,                   !- Time 11 {hh:mm}
   1431     1000,                    !- Value Until Time 11
   1432     12:00,                   !- Time 12 {hh:mm}
   1433     1000,                    !- Value Until Time 12
[...]
  42757     1.550902001,             !- Coefficient1 Constant
  42758     -0.0750500892,           !- Coefficient2 x
  42759     0.00309713544,           !- Coefficient3 x**2
  42760     0.00240111,              !- Coefficient4 y
  42761     -5.0544e-005,            !- Coefficient5 y**2
  42762     -0.00042728148,          !- Coefficient6 x*y
  42763     13.88,                   !- Minimum Value of x
  42764     23.88,                   !- Maximum Value of x
  42765     18.33,                   !- Minimum Value of y
  42766     51.66;                   !- Maximum Value of y
  42767 
  42768 Curve:Biquadratic,
  42769     Cool-EIR-fT,             !- Name
  42770     -0.304282997000001,      !- Coefficient1 Constant
  42771     0.1180477062,            !- Coefficient2 x
  42772     -0.00342466704,          !- Coefficient3 x**2
  42773     -0.0062619138,           !- Coefficient4 y
  42774     0.00069542712,           !- Coefficient5 y**2
  42775     -0.00046997496,          !- Coefficient6 x*y
  42776     13.88,                   !- Minimum Value of x
  42777     23.88,                   !- Maximum Value of x
  42778     18.33,                   !- Minimum Value of y
  42779     51.66;                   !- Maximum Value of y
  42780 
  42781 
  42782 !-   ===========  ALL OBJECTS IN CLASS: LIFECYCLECOST:PARAMETERS ===========
  42783 
  42784 LifeCycleCost:Parameters,
  42785     {9e0fc3ad-7b9a-4b6d-b424-4bbcd9c046b3},  !- Name
  42786     EndOfYear,               !- Discounting Convention
  42787     ConstantDollar,          !- Inflation Approach
  42788     0.03,                    !- Real Discount Rate
  42789     ,                        !- Nominal Discount Rate
  42790     ,                        !- Inflation
  42791     ,                        !- Base Date Month
  42792     2011,                    !- Base Date Year
  42793     ,                        !- Service Date Month
  42794     2011,                    !- Service Date Year
  42795     25,                      !- Length of Study Period in Years
  42796     ,                        !- Tax rate
  42797     None;                    !- Depreciation Method
  42798 
  42799 
  42800 !-   ===========  ALL OBJECTS IN CLASS: LIFECYCLECOST:NONRECURRINGCOST ===========
  42801 
  42802 LifeCycleCost:NonrecurringCost,
  42803     Default Cost,            !- Name
  42804     Construction,            !- Category
  42805     0,                       !- Cost
  42806     ServicePeriod;           !- Start of Costs
  42807 
  42808 
  42809 !-   ===========  ALL OBJECTS IN CLASS: LIFECYCLECOST:USEPRICEESCALATION ===========
  42810 
  42811 LifeCycleCost:UsePriceEscalation,
  42812     U.S. Avg  Commercial-Electricity,  !- Name
  42813     Electricity,             !- Resource
  42814     2011,                    !- Escalation Start Year
  42815     January,                 !- Escalation Start Month
  42816     0.9838,                  !- Year 1 Escalation
  42817     0.9730,                  !- Year 2 Escalation
  42818     0.9632,                  !- Year 3 Escalation
  42819     0.9611,                  !- Year 4 Escalation
  42820     0.9571,                  !- Year 5 Escalation
  42821     0.9553,                  !- Year 6 Escalation
  42822     0.9539,                  !- Year 7 Escalation
  42823     0.9521,                  !- Year 8 Escalation
  42824     0.9546,                  !- Year 9 Escalation
  42825     0.9550,                  !- Year 10 Escalation
  42826     0.9553,                  !- Year 11 Escalation
  42827     0.9564,                  !- Year 12 Escalation
  42828     0.9575,                  !- Year 13 Escalation
  42829     0.9596,                  !- Year 14 Escalation
  42830     0.9618,                  !- Year 15 Escalation
  42831     0.9614,                  !- Year 16 Escalation
  42832     0.9618,                  !- Year 17 Escalation
  42833     0.9618,                  !- Year 18 Escalation
  42834     0.9593,                  !- Year 19 Escalation
  42835     0.9589,                  !- Year 20 Escalation
  42836     0.9607,                  !- Year 21 Escalation
  42837     0.9625,                  !- Year 22 Escalation
  42838     0.9650,                  !- Year 23 Escalation
  42839     0.9708,                  !- Year 24 Escalation
  42840     0.9751,                  !- Year 25 Escalation
  42841     0.9762,                  !- Year 26 Escalation
  42842     0.9766,                  !- Year 27 Escalation
  42843     0.9766,                  !- Year 28 Escalation
  42844     0.9769,                  !- Year 29 Escalation
  42845     0.9773;                  !- Year 30 Escalation
  42846 
  42847 LifeCycleCost:UsePriceEscalation,
  42848     U.S. Avg  Commercial-Distillate Oil,  !- Name
  42849     FuelOil#1,               !- Resource
  42850     2011,                    !- Escalation Start Year
  42851     January,                 !- Escalation Start Month
  42852     0.9714,                  !- Year 1 Escalation
  42853     0.9730,                  !- Year 2 Escalation
  42854     0.9942,                  !- Year 3 Escalation
  42855     1.0164,                  !- Year 4 Escalation
  42856     1.0541,                  !- Year 5 Escalation
  42857     1.0928,                  !- Year 6 Escalation
  42858     1.1267,                  !- Year 7 Escalation
  42859     1.1580,                  !- Year 8 Escalation
  42860     1.1792,                  !- Year 9 Escalation
  42861     1.1967,                  !- Year 10 Escalation
  42862     1.2200,                  !- Year 11 Escalation
  42863     1.2333,                  !- Year 12 Escalation
  42864     1.2566,                  !- Year 13 Escalation
  42865     1.2709,                  !- Year 14 Escalation
  42866     1.2826,                  !- Year 15 Escalation
  42867     1.2985,                  !- Year 16 Escalation
  42868     1.3102,                  !- Year 17 Escalation
  42869     1.3250,                  !- Year 18 Escalation
  42870     1.3261,                  !- Year 19 Escalation
  42871     1.3282,                  !- Year 20 Escalation
  42872     1.3324,                  !- Year 21 Escalation
  42873     1.3356,                  !- Year 22 Escalation
  42874     1.3431,                  !- Year 23 Escalation
  42875     1.3510,                  !- Year 24 Escalation
  42876     1.3568,                  !- Year 25 Escalation
  42877     1.3606,                  !- Year 26 Escalation
  42878     1.3637,                  !- Year 27 Escalation
  42879     1.3674,                  !- Year 28 Escalation
  42880     1.3706,                  !- Year 29 Escalation
  42881     1.3743;                  !- Year 30 Escalation
  42882 
  42883 LifeCycleCost:UsePriceEscalation,
  42884     U.S. Avg  Commercial-Residual Oil,  !- Name
  42885     FuelOil#2,               !- Resource
  42886     2011,                    !- Escalation Start Year
  42887     January,                 !- Escalation Start Month
  42888     0.8469,                  !- Year 1 Escalation
  42889     0.8257,                  !- Year 2 Escalation
  42890     0.8681,                  !- Year 3 Escalation
  42891     0.8988,                  !- Year 4 Escalation
  42892     0.9289,                  !- Year 5 Escalation
  42893     0.9604,                  !- Year 6 Escalation
  42894     0.9897,                  !- Year 7 Escalation
  42895     1.0075,                  !- Year 8 Escalation
  42896     1.0314,                  !- Year 9 Escalation
  42897     1.0554,                  !- Year 10 Escalation
  42898     1.0861,                  !- Year 11 Escalation
  42899     1.1278,                  !- Year 12 Escalation
  42900     1.1497,                  !- Year 13 Escalation
  42901     1.1620,                  !- Year 14 Escalation
  42902     1.1743,                  !- Year 15 Escalation
  42903     1.1852,                  !- Year 16 Escalation
  42904     1.1948,                  !- Year 17 Escalation
  42905     1.2037,                  !- Year 18 Escalation
  42906     1.2071,                  !- Year 19 Escalation
  42907     1.2119,                  !- Year 20 Escalation
  42908     1.2139,                  !- Year 21 Escalation
  42909     1.2194,                  !- Year 22 Escalation
  42910     1.2276,                  !- Year 23 Escalation
  42911     1.2365,                  !- Year 24 Escalation
  42912     1.2420,                  !- Year 25 Escalation
  42913     1.2461,                  !- Year 26 Escalation
  42914     1.2509,                  !- Year 27 Escalation
  42915     1.2550,                  !- Year 28 Escalation
  42916     1.2591,                  !- Year 29 Escalation
  42917     1.2638;                  !- Year 30 Escalation
  42918 
  42919 LifeCycleCost:UsePriceEscalation,
  42920     U.S. Avg  Commercial-Natural gas,  !- Name
  42921     NaturalGas,              !- Resource
  42922     2011,                    !- Escalation Start Year
  42923     January,                 !- Escalation Start Month
  42924     0.9823,                  !- Year 1 Escalation
  42925     0.9557,                  !- Year 2 Escalation
  42926     0.9279,                  !- Year 3 Escalation
  42927     0.9257,                  !- Year 4 Escalation
  42928     0.9346,                  !- Year 5 Escalation
  42929     0.9412,                  !- Year 6 Escalation
  42930     0.9512,                  !- Year 7 Escalation
  42931     0.9645,                  !- Year 8 Escalation
  42932     0.9856,                  !- Year 9 Escalation
  42933     1.0067,                  !- Year 10 Escalation
  42934     1.0222,                  !- Year 11 Escalation
  42935     1.0410,                  !- Year 12 Escalation
  42936     1.0610,                  !- Year 13 Escalation
  42937     1.0787,                  !- Year 14 Escalation
  42938     1.0942,                  !- Year 15 Escalation
  42939     1.1098,                  !- Year 16 Escalation
  42940     1.1220,                  !- Year 17 Escalation
  42941     1.1308,                  !- Year 18 Escalation
  42942     1.1386,                  !- Year 19 Escalation
  42943     1.1486,                  !- Year 20 Escalation
  42944     1.1619,                  !- Year 21 Escalation
  42945     1.1763,                  !- Year 22 Escalation
  42946     1.1918,                  !- Year 23 Escalation
  42947     1.2118,                  !- Year 24 Escalation
  42948     1.2284,                  !- Year 25 Escalation
  42949     1.2439,                  !- Year 26 Escalation
  42950     1.2605,                  !- Year 27 Escalation
  42951     1.2772,                  !- Year 28 Escalation
  42952     1.2938,                  !- Year 29 Escalation
  42953     1.3115;                  !- Year 30 Escalation
  42954 
  42955 LifeCycleCost:UsePriceEscalation,
  42956     U.S. Avg  Commercial-Coal,  !- Name
  42957     Coal,                    !- Resource
  42958     2011,                    !- Escalation Start Year
  42959     January,                 !- Escalation Start Month
  42960     0.9970,                  !- Year 1 Escalation
  42961     1.0089,                  !- Year 2 Escalation
  42962     1.0089,                  !- Year 3 Escalation
  42963     0.9941,                  !- Year 4 Escalation
  42964     0.9941,                  !- Year 5 Escalation
  42965     1.0000,                  !- Year 6 Escalation
  42966     1.0030,                  !- Year 7 Escalation
  42967     1.0059,                  !- Year 8 Escalation
  42968     1.0089,                  !- Year 9 Escalation
  42969     1.0119,                  !- Year 10 Escalation
  42970     1.0148,                  !- Year 11 Escalation
  42971     1.0178,                  !- Year 12 Escalation
  42972     1.0208,                  !- Year 13 Escalation
  42973     1.0267,                  !- Year 14 Escalation
  42974     1.0297,                  !- Year 15 Escalation
  42975     1.0356,                  !- Year 16 Escalation
  42976     1.0415,                  !- Year 17 Escalation
  42977     1.0534,                  !- Year 18 Escalation
  42978     1.0564,                  !- Year 19 Escalation
  42979     1.0593,                  !- Year 20 Escalation
  42980     1.0653,                  !- Year 21 Escalation
  42981     1.0712,                  !- Year 22 Escalation
  42982     1.0742,                  !- Year 23 Escalation
  42983     1.0801,                  !- Year 24 Escalation
  42984     1.0831,                  !- Year 25 Escalation
  42985     1.0831,                  !- Year 26 Escalation
  42986     1.0861,                  !- Year 27 Escalation
  42987     1.0890,                  !- Year 28 Escalation
  42988     1.0920,                  !- Year 29 Escalation
  42989     1.0950;                  !- Year 30 Escalation
  42990 
  42991 
  42992 !-   ===========  ALL OBJECTS IN CLASS: OUTPUT:VARIABLEDICTIONARY ===========
  42993 
  42994 Output:VariableDictionary,
  42995     IDF,                     !- Key Field
  42996     Unsorted;                !- Sort Option
  42997 
  42998 
  42999 !-   ===========  ALL OBJECTS IN CLASS: OUTPUT:SURFACES:LIST ===========
  43000 
  43001 Output:Surfaces:List,
  43002     Details,                 !- Report Type
  43003     IDF;                     !- Report Specifications
  43004 
  43005 
  43006 !-   ===========  ALL OBJECTS IN CLASS: OUTPUT:CONSTRUCTIONS ===========
  43007 
  43008 Output:Constructions,
  43009     Constructions,           !- Details Type 1
  43010     Materials;               !- Details Type 2
  43011 
  43012 
  43013 !-   ===========  ALL OBJECTS IN CLASS: OUTPUT:TABLE:SUMMARYREPORTS ===========
  43014 
  43015 Output:Table:SummaryReports,
  43016     AllSummary;              !- Report 1 Name
  43017 
  43018 
  43019 !-   ===========  ALL OBJECTS IN CLASS: OUTPUTCONTROL:TABLE:STYLE ===========
  43020 
  43021 OutputControl:Table:Style,
  43022     HTML;                    !- Column Separator
  43023 
  43024 
  43025 !-   ===========  ALL OBJECTS IN CLASS: OUTPUTCONTROL:REPORTINGTOLERANCES ===========
  43026 
  43027 OutputControl:ReportingTolerances,
  43028     0.2,                     !- Tolerance for Time Heating Setpoint Not Met {deltaC}
  43029     0.2;                     !- Tolerance for Time Cooling Setpoint Not Met {deltaC}
  43030 
  43031 
  43032 !-   ===========  ALL OBJECTS IN CLASS: OUTPUT:SQLITE ===========
  43033 
  43034 Output:SQLite,
  43035     SimpleAndTabular;        !- Option Type
  43036 
  Processing Input Data File (in.idf) -- Complete
  Maximum number of Alpha IDF Args=          27
  Maximum number of Numeric IDF Args=          88
  Number of IDF "Lines"=        1420
  Number of Defaulted Fields=         140
  Number of Fields with Defaults=        1197
  Number of Autosized Fields=          15
  Number of Autosizable Fields =          49
  Number of Autocalculated Fields=          78
  Number of Autocalculatable Fields =          79
 Getting object=OUTPUT:SQLITE
 Getting object=PROGRAMCONTROL
 Getting object=VERSION
 Getting object=HEATBALANCEALGORITHM
 Getting object=TIMESTEP
 Getting object=CONVERGENCELIMITS
 Getting object=OUTPUTCONTROL:REPORTINGTOLERANCES
 Getting object=SIMULATIONCONTROL
 Getting object=OUTPUT:SURFACES:LIST
 Getting object=OUTPUT:VARIABLEDICTIONARY
 Getting object=OUTPUT:CONSTRUCTIONS
 Getting object=BRANCH
 Getting object=CURVE:BIQUADRATIC
 Getting object=CURVE:CUBIC
 Getting object=CURVE:QUADRATIC
 Getting object=CURVE:EXPONENT
 Getting object=NODELIST
 Getting object=BRANCHLIST
 Getting object=DESIGNSPECIFICATION:OUTDOORAIR
 Getting object=DESIGNSPECIFICATION:ZONEAIRDISTRIBUTION
 Getting object=SIZING:PARAMETERS
 Getting object=ZONE
 Getting object=ZONELIST
 Getting object=SIZING:ZONE
 Getting object=SIZING:SYSTEM
 Getting object=SIZING:PLANT
 Getting object=OUTPUT:TABLE:SUMMARYREPORTS
 Getting object=SIZINGPERIOD:DESIGNDAY
 Getting object=RUNPERIOD
 Getting object=SITE:LOCATION
 Getting object=SITE:WATERMAINSTEMPERATURE
 Getting object=SCHEDULE:COMPACT
  Processing Schedule Input -- Start
 Getting object=SCHEDULETYPELIMITS
 Getting object=SCHEDULE:DAY:INTERVAL
 Getting object=SCHEDULE:WEEK:DAILY
 Getting object=SCHEDULE:YEAR
 Getting object=SCHEDULE:CONSTANT
  Processing Schedule Input -- Complete
 Getting object=BUILDING
 Getting object=SURFACECONVECTIONALGORITHM:INSIDE
 Getting object=SURFACECONVECTIONALGORITHM:OUTSIDE
 Getting object=ZONEAIRHEATBALANCEALGORITHM
 Getting object=MATERIAL
 Getting object=MATERIAL:NOMASS
 Getting object=WINDOWMATERIAL:SHADE
 Getting object=WINDOWMATERIAL:SIMPLEGLAZINGSYSTEM
 Getting object=CONSTRUCTION
 Getting object=GLOBALGEOMETRYRULES
 Getting object=BUILDINGSURFACE:DETAILED
 Getting object=WINDOWPROPERTY:SHADINGCONTROL
 Getting object=FENESTRATIONSURFACE:DETAILED
 Getting object=INTERNALMASS
 Getting object=PEOPLE
 Getting object=LIGHTS
 Getting object=ELECTRICEQUIPMENT
 Getting object=GASEQUIPMENT
 Getting object=OTHEREQUIPMENT
 Getting object=SHADOWCALCULATION
 Getting object=WATERHEATER:MIXED
 Getting object=ZONECONTROL:THERMOSTAT
 Getting object=THERMOSTATSETPOINT:DUALSETPOINT
 Getting object=SETPOINTMANAGER:SCHEDULED
 Getting object=SETPOINTMANAGER:SINGLEZONE:REHEAT
 Getting object=PLANTLOOP
 Getting object=AVAILABILITYMANAGER:SCHEDULED
 Getting object=AVAILABILITYMANAGERASSIGNMENTLIST
 Getting object=CONNECTORLIST
 Getting object=CONNECTOR:SPLITTER
 Getting object=CONNECTOR:MIXER
 Getting object=ZONEHVAC:EQUIPMENTCONNECTIONS
 Getting object=ZONEHVAC:EQUIPMENTLIST
 Getting object=AIRLOOPHVAC:SUPPLYPATH
 Getting object=AIRLOOPHVAC:RETURNPATH
 Getting object=WATERUSE:EQUIPMENT
 Getting object=WATERUSE:CONNECTIONS
 Getting object=AIRLOOPHVAC:ZONESPLITTER
 Getting object=AIRTERMINAL:SINGLEDUCT:UNCONTROLLED
 Getting object=AIRLOOPHVAC:ZONEMIXER
 Getting object=AIRLOOPHVAC
 Getting object=EXTERIOR:LIGHTS
 Getting object=AIRLOOPHVAC:UNITARYSYSTEM
 Getting object=FAN:ONOFF
 Getting object=COIL:HEATING:GAS
 Getting object=COIL:COOLING:DX:SINGLESPEED
 Getting object=PIPE:ADIABATIC
 Getting object=PLANTEQUIPMENTOPERATIONSCHEMES
 Getting object=PLANTEQUIPMENTOPERATION:HEATINGLOAD
 Getting object=PLANTEQUIPMENTLIST
 Getting object=PUMP:CONSTANTSPEED
 Getting object=LIFECYCLECOST:PARAMETERS
 Getting object=LIFECYCLECOST:NONRECURRINGCOST
 Getting object=LIFECYCLECOST:USEPRICEESCALATION
 Getting object=OUTPUTCONTROL:TABLE:STYLE
 MonthlyInputCount=           0
 sizeMonthlyInput=           0
 MonthlyFieldSetInputCount=           0
 sizeMonthlyFieldSetInput=           0
 MonthlyTablesCount=           0
 MonthlyColumnsCount=           0
 sizeReportName=         100
 numReportName=          13
 sizeSubTable=         100
 numSubTable=          62
 sizeColumnTag=         400
 numColumnTag=         389
 sizeTableEntry=        1300
 numTableEntry=        1214
 sizeCompSizeTableEntry=         100
 numCompSizeTableEntry=          23
 NumOfRVariable=        4669
 NumOfRVariable(Total)=        4669
 NumOfRVariable(Actual)=          65
 NumOfRVariable(Summed)=          65
 NumOfRVariable(Meter)=          65
 NumOfIVariable=         234
 NumOfIVariable(Total)=         234
 NumOfIVariable(Actual)=           0
 NumOfIVariable(Summed)=           0
 MaxRVariable=        1000
 MaxIVariable=          10
 NumEnergyMeters=          75
 NumVarMeterArrays=          65
 maxUniqueKeyCount=        1500
 maxNumberOfFigures=           4
 MAXHCArrayBounds=          10
 MaxVerticesPerSurface=           4
 NumReportList=         500
 InstMeterCacheSize=        1000
 ClippingAlgorithm=SutherlandHodgman
 MonthlyFieldSetInputCount=           0
 NumConsideredOutputVariables=           0
 MaxConsideredOutputVariables=       10000
 numActuatorsUsed=           0
 numEMSActuatorsAvailable=           0
 maxEMSActuatorsAvailable=           0
 numInternalVariablesUsed=           0
 numEMSInternalVarsAvailable=           2
 maxEMSInternalVarsAvailable=        1000
 NumOfNodeConnections=         151
 MaxNumOfNodeConnections=        1000
