Program Version,EnergyPlus, Version 9.2.0-921312fa1d, YMD=2020.03.10 07:41,
   ** Warning ** Timestep: Requested number (1) is less than the suggested minimum of 4.
   **   ~~~   ** Please see entry for Timestep in Input/Output Reference for discussion of considerations.
   ** Warning ** GetSurfaceData: Very small surface area[5.89412E-004], Surface=SURFACE DOORNORTH
   ** Warning ** GetSurfaceData: Very small surface area[5.89412E-004], Surface=SURFACE DOORSOUTH
   ** Warning ** GetSurfaceData: Very small surface area[7.92500E-004], Surface=SURFACE WINDOWEAST
   ** Warning ** GetSurfaceData: Very small surface area[7.92500E-004], Surface=SURFACE WINDOWWEST
   ************* Note that the following warning(s) may/will occur if you have not enclosed your zone completely.
   ** Warning ** Entered Zone Volumes differ from calculated zone volume(s).
   **   ~~~   ** ...use Output:Diagnostics,DisplayExtraWarnings; to show more details on individual zones.
   ** Warning ** CalculateZoneVolume: 2 zones are not fully enclosed. For more details use:  Output:Diagnostics,DisplayExtrawarnings; 
   ** Warning ** GetInputViewFactors: ComplexFenestrationProperty:SolarAbsorbedLayers="LIVING SPACE", not enough values.
   **   ~~~   ** ...Number of input values [237] is less than the required number=[841] Missing surface pairs will have a zero view factor.
   ** Warning ** GetInputViewFactors: Output:DaylightFactors="LIVING SPACE", not enough values.
   **   ~~~   ** ...Number of input values [237] is less than the required number=[841] Missing surface pairs will have a zero view factor.
   ** Warning ** The Standard Ratings is calculated for Coil:Cooling:DX:SingleSpeed = CENTRAL AC CLG COIL but not at the AHRI test condition due to curve out of bound.
   **   ~~~   **  Review the Standard Ratings calculations in the Engineering Reference for this coil type. Also, use Output:Diagnostics, DisplayExtraWarnings for further guidance.
   ** Warning ** Check input. Pump nominal power or motor efficiency is set to 0, for pump=PUMP VARIABLE SPEED 1
   ** Warning ** Output:Meter: invalid Key Name="FUELOIL#1:FACILITY" - not found.
   ** Warning ** Output:Meter: invalid Key Name="PROPANE:FACILITY" - not found.
   ** Warning ** Output:Meter: invalid Key Name="GARAGE LIGHTING:INTERIORLIGHTS:ELECTRICITY" - not found.
   ** Warning ** Output:Meter: invalid Key Name="CEILING FAN:INTERIOREQUIPMENT:ELECTRICITY" - not found.
   ** Warning ** Output:Meter: invalid Key Name="ELECTRICITYPRODUCED:FACILITY" - not found.
   ** Warning ** Output:Meter: invalid Key Name="CLOTHES DRYER:INTERIOREQUIPMENT:GAS" - not found.
   ** Warning ** Output:Meter: invalid Key Name="COOKING RANGE:INTERIOREQUIPMENT:GAS" - not found.
   ** Warning ** Output:Meter: invalid Key Name="CLOTHES DRYER:INTERIOREQUIPMENT:FUELOIL#1" - not found.
   ** Warning ** Output:Meter: invalid Key Name="COOKING RANGE:INTERIOREQUIPMENT:FUELOIL#1" - not found.
   ** Warning ** Output:Meter: invalid Key Name="CLOTHES DRYER:INTERIOREQUIPMENT:PROPANE" - not found.
   ** Warning ** Output:Meter: invalid Key Name="COOKING RANGE:INTERIOREQUIPMENT:PROPANE" - not found.
   ** Warning ** Output:Meter: invalid Key Name="FUELOIL#1:FACILITY" - not found.
   ** Warning ** Output:Meter: invalid Key Name="PROPANE:FACILITY" - not found.
   ** Warning ** Output:Meter: invalid Key Name="GARAGE LIGHTING:INTERIORLIGHTS:ELECTRICITY" - not found.
   ** Warning ** Output:Meter: invalid Key Name="CEILING FAN:INTERIOREQUIPMENT:ELECTRICITY" - not found.
   ** Warning ** Output:Meter: invalid Key Name="ELECTRICITYPRODUCED:FACILITY" - not found.
   ** Warning ** Output:Meter: invalid Key Name="CLOTHES DRYER:INTERIOREQUIPMENT:GAS" - not found.
   ** Warning ** Output:Meter: invalid Key Name="COOKING RANGE:INTERIOREQUIPMENT:GAS" - not found.
   ** Warning ** Output:Meter: invalid Key Name="CLOTHES DRYER:INTERIOREQUIPMENT:FUELOIL#1" - not found.
   ** Warning ** Output:Meter: invalid Key Name="COOKING RANGE:INTERIOREQUIPMENT:FUELOIL#1" - not found.
   ** Warning ** Output:Meter: invalid Key Name="CLOTHES DRYER:INTERIOREQUIPMENT:PROPANE" - not found.
   ** Warning ** Output:Meter: invalid Key Name="COOKING RANGE:INTERIOREQUIPMENT:PROPANE" - not found.
   ************* Testing Individual Branch Integrity
   ************* All Branches passed integrity testing
   ************* Testing Individual Supply Air Path Integrity
   ************* All Supply Air Paths passed integrity testing
   ************* Testing Individual Return Air Path Integrity
   ************* All Return Air Paths passed integrity testing
   ************* No node connection errors were found.
   ************* Beginning Simulation
   ** Warning ** SimHVAC: Maximum iterations (20) exceeded for all HVAC loops, at RUN PERIOD 1, 01/05 19:00 - 20:00
   **   ~~~   ** The solution for one or more of the Air Loop HVAC systems did not appear to converge
   **   ~~~   ** ...use Output:Diagnostics,DisplayExtraWarnings; to show more details on each max iteration exceeded.
   ** Warning ** SimHVAC: Maximum iterations (20) exceeded for all HVAC loops, at RUN PERIOD 1, 02/20 17:00 - 18:00
   **   ~~~   ** The solution for one or more of the Air Loop HVAC systems did not appear to converge
   ** Warning ** SimHVAC: Maximum iterations (20) exceeded for all HVAC loops, at RUN PERIOD 1, 03/06 16:00 - 17:00
   **   ~~~   ** The solution for one or more of the Air Loop HVAC systems did not appear to converge
   ** Warning ** SimHVAC: Maximum iterations (20) exceeded for all HVAC loops, at RUN PERIOD 1, 04/28 03:00 - 04:00
   **   ~~~   ** The solution for one or more of the Air Loop HVAC systems did not appear to converge
   ** Warning ** SimHVAC: Maximum iterations (20) exceeded for all HVAC loops, at RUN PERIOD 1, 05/01 09:00 - 10:00
   **   ~~~   ** The solution for one or more of the Air Loop HVAC systems did not appear to converge
   ** Warning ** CalcDoe2DXCoil: Coil:Cooling:DX:SingleSpeed="CENTRAL AC CLG COIL" - Air volume flow rate per watt of rated total cooling capacity is out of range at 6.791E-005 m3/s/W.
   **   ~~~   **  Environment=RUN PERIOD 1, at Simulation time=05/10 14:00 - 15:00
   **   ~~~   ** Expected range for VolumeFlowPerRatedTotalCapacity=[2.684E-005--6.713E-005]
   **   ~~~   ** Possible causes include inconsistent air flow rates in system components,
   **   ~~~   ** or variable air volume [VAV] system using incorrect coil type.
   ** Warning ** SimHVAC: Maximum iterations (20) exceeded for all HVAC loops, at RUN PERIOD 1, 06/20 02:00 - 03:00
   **   ~~~   ** The solution for one or more of the Air Loop HVAC systems did not appear to converge
   ** Warning ** SimHVAC: Maximum iterations (20) exceeded for all HVAC loops, at RUN PERIOD 1, 10/22 20:00 - 21:00
   **   ~~~   ** The solution for one or more of the Air Loop HVAC systems did not appear to converge
   ** Warning ** SimHVAC: Maximum iterations (20) exceeded for all HVAC loops, at RUN PERIOD 1, 11/11 11:00 - 12:00
   **   ~~~   ** The solution for one or more of the Air Loop HVAC systems did not appear to converge
   ** Warning ** SimHVAC: Maximum iterations (20) exceeded for all HVAC loops, at RUN PERIOD 1, 11/20 23:00 - 24:00
   **   ~~~   ** The solution for one or more of the Air Loop HVAC systems did not appear to converge
   ** Warning ** SimHVAC: Maximum iterations (20) exceeded for all HVAC loops, at RUN PERIOD 1, 12/16 13:00 - 14:00
   **   ~~~   ** The solution for one or more of the Air Loop HVAC systems did not appear to converge
   ************* Simulation Error Summary *************
   ** Warning ** The following Report Variables were requested but not generated -- check.rdd file
   **   ~~~   ** Either the IDF did not contain these elements, the variable name is misspelled,
   **   ~~~   ** or the requested variable is an advanced output which requires Output : Diagnostics, DisplayAdvancedReportVariables;
   ************* Key=*, VarName=CENTRAL AC SUPPLY FAN CLG DISAGGREGATE, Frequency=Monthly
   ************* Key=furnace htg coil, VarName=HEATING COIL FUELOIL#1 ENERGY, Frequency=
   ************* Key=furnace htg coil, VarName=HEATING COIL PROPANE ENERGY, Frequency=
   ************* Key=water heater, VarName=WATER HEATER GAS ENERGY, Frequency=
   ************* Key=water heater, VarName=WATER HEATER FUELOIL#1 ENERGY, Frequency=
   ************* Key=water heater, VarName=WATER HEATER PROPANE ENERGY, Frequency=
   ************* Key=furnace htg coil, VarName=HEATING COIL FUELOIL#1 ENERGY, Frequency=Hourly
   ************* Key=furnace htg coil, VarName=HEATING COIL PROPANE ENERGY, Frequency=Hourly
   ************* Key=water heater, VarName=WATER HEATER GAS ENERGY, Frequency=Hourly
   ************* Key=water heater, VarName=WATER HEATER FUELOIL#1 ENERGY, Frequency=Hourly
   ************* Key=water heater, VarName=WATER HEATER PROPANE ENERGY, Frequency=Hourly
   ************* There are 1 unused objects in input.
   ************* Use Output:Diagnostics,DisplayUnusedObjects; to see them.
   ************* There are 3 unused schedules in input.
   ************* There are 5 unused week schedules in input.
   ************* There are 6 unused day schedules in input.
   ************* Use Output:Diagnostics,DisplayUnusedSchedules; to see them.
   *************
   ************* ===== Recurring Error Summary =====
   ************* The following recurring error messages occurred.
   *************
   *************  ** Warning ** CalcDoe2DXCoil: Coil:Cooling:DX:SingleSpeed="CENTRAL AC CLG COIL" - Air volume flow rate per watt of rated total cooling capacity is out of range error continues...
   *************  **   ~~~   **   This error occurred 16110 total times;
   *************  **   ~~~   **   during Warmup 0 times;
   *************  **   ~~~   **   during Sizing 0 times.
   *************  **   ~~~   **   Max=7.035464E-005  Min=6.754812E-005
   *************
   ************* EnergyPlus Warmup Error Summary. During Warmup: 0 Warning; 0 Severe Errors.
   ************* EnergyPlus Sizing Error Summary. During Sizing: 0 Warning; 0 Severe Errors.
   ************* EnergyPlus Completed Successfully-- 16154 Warning; 0 Severe Errors; Elapsed Time=00hr 00min  8.85sec
