Program Version,EnergyPlus-Windows-64 8.1.0.008, YMD=2014.08.06 16:22,IDD_Version 8.1.0.008
   ************* IDF Context for following error/warning message:
   ************* Note -- lines truncated at 300 characters, if necessary...
   *************    780 FenestrationSurface:Detailed,
   ************* indicated Name=Sub Surface 1
   ************* Only last 3 lines before error line shown.....
   *************    781   Sub Surface 1,                          !- Name
   *************    782   Window,                                 !- Surface Type
   *************    783   ,                                       !- Construction Name
   ** Severe  ** IP: IDF line~783 Error detected in Object=FENESTRATIONSURFACE:DETAILED, name=SUB SURFACE 1
   **   ~~~   ** Field [Construction Name] is required but was blank
   ** Severe  ** IP: Blank "required" fields found in input
   ** Severe  ** IP: Out of "range" values and/or blank required fields found in input
   **  Fatal  ** IP: Errors occurred on processing IDF file. Preceding condition(s) cause termination.
   ...Summary of Errors that led to program termination:
   ..... Reference severe error count=3
   ..... Last severe error=IP: Out of "range" values and/or blank required fields found in input
   ************* Warning:  Node connection errors not checked - most system input has not been read (see previous warning).
   ************* Fatal error -- final processing.  Program exited before simulations began.  See previous error messages.
   ************* EnergyPlus Warmup Error Summary. During Warmup: 0 Warning; 0 Severe Errors.
   ************* EnergyPlus Sizing Error Summary. During Sizing: 0 Warning; 0 Severe Errors.
   ************* EnergyPlus Terminated--Fatal Error Detected. 0 Warning; 3 Severe Errors; Elapsed Time=00hr 00min  0.76sec
